
---------- Begin Simulation Statistics ----------
sim_seconds                                  0.001191                       # Number of seconds simulated
sim_ticks                                  1191080000                       # Number of ticks simulated
final_tick                               2262441470000                       # Number of ticks from beginning of simulation (restored from checkpoints and never reset)
sim_freq                                 1000000000000                       # Frequency of simulated ticks
host_inst_rate                               32526814                       # Simulator instruction rate (inst/s)
host_op_rate                                 32526746                       # Simulator op (including micro ops) rate (op/s)
host_tick_rate                              328630889                       # Simulator tick rate (ticks/s)
host_mem_usage                                 741908                       # Number of bytes of host memory used
host_seconds                                     3.62                       # Real time elapsed on the host
sim_insts                                   117888738                       # Number of instructions simulated
sim_ops                                     117888738                       # Number of ops (including micro ops) simulated
system.voltage_domain.voltage                       1                       # Voltage in Volts
system.clk_domain.clock                          1000                       # Clock period in ticks
system.mem_ctrls.bytes_read::switch_cpus0.inst       180736                       # Number of bytes read from this memory
system.mem_ctrls.bytes_read::switch_cpus0.data       246784                       # Number of bytes read from this memory
system.mem_ctrls.bytes_read::switch_cpus1.inst        74304                       # Number of bytes read from this memory
system.mem_ctrls.bytes_read::switch_cpus1.data       139008                       # Number of bytes read from this memory
system.mem_ctrls.bytes_read::switch_cpus2.inst         3136                       # Number of bytes read from this memory
system.mem_ctrls.bytes_read::switch_cpus2.data         2304                       # Number of bytes read from this memory
system.mem_ctrls.bytes_read::switch_cpus3.inst       241472                       # Number of bytes read from this memory
system.mem_ctrls.bytes_read::switch_cpus3.data       694400                       # Number of bytes read from this memory
system.mem_ctrls.bytes_read::total            1582144                       # Number of bytes read from this memory
system.mem_ctrls.bytes_inst_read::switch_cpus0.inst       180736                       # Number of instructions bytes read from this memory
system.mem_ctrls.bytes_inst_read::switch_cpus1.inst        74304                       # Number of instructions bytes read from this memory
system.mem_ctrls.bytes_inst_read::switch_cpus2.inst         3136                       # Number of instructions bytes read from this memory
system.mem_ctrls.bytes_inst_read::switch_cpus3.inst       241472                       # Number of instructions bytes read from this memory
system.mem_ctrls.bytes_inst_read::total        499648                       # Number of instructions bytes read from this memory
system.mem_ctrls.bytes_written::writebacks       668160                       # Number of bytes written to this memory
system.mem_ctrls.bytes_written::total          668160                       # Number of bytes written to this memory
system.mem_ctrls.num_reads::switch_cpus0.inst         2824                       # Number of read requests responded to by this memory
system.mem_ctrls.num_reads::switch_cpus0.data         3856                       # Number of read requests responded to by this memory
system.mem_ctrls.num_reads::switch_cpus1.inst         1161                       # Number of read requests responded to by this memory
system.mem_ctrls.num_reads::switch_cpus1.data         2172                       # Number of read requests responded to by this memory
system.mem_ctrls.num_reads::switch_cpus2.inst           49                       # Number of read requests responded to by this memory
system.mem_ctrls.num_reads::switch_cpus2.data           36                       # Number of read requests responded to by this memory
system.mem_ctrls.num_reads::switch_cpus3.inst         3773                       # Number of read requests responded to by this memory
system.mem_ctrls.num_reads::switch_cpus3.data        10850                       # Number of read requests responded to by this memory
system.mem_ctrls.num_reads::total               24721                       # Number of read requests responded to by this memory
system.mem_ctrls.num_writes::writebacks         10440                       # Number of write requests responded to by this memory
system.mem_ctrls.num_writes::total              10440                       # Number of write requests responded to by this memory
system.mem_ctrls.bw_read::switch_cpus0.inst    151741277                       # Total read bandwidth from this memory (bytes/s)
system.mem_ctrls.bw_read::switch_cpus0.data    207193471                       # Total read bandwidth from this memory (bytes/s)
system.mem_ctrls.bw_read::switch_cpus1.inst     62383719                       # Total read bandwidth from this memory (bytes/s)
system.mem_ctrls.bw_read::switch_cpus1.data    116707526                       # Total read bandwidth from this memory (bytes/s)
system.mem_ctrls.bw_read::switch_cpus2.inst      2632905                       # Total read bandwidth from this memory (bytes/s)
system.mem_ctrls.bw_read::switch_cpus2.data      1934379                       # Total read bandwidth from this memory (bytes/s)
system.mem_ctrls.bw_read::switch_cpus3.inst    202733653                       # Total read bandwidth from this memory (bytes/s)
system.mem_ctrls.bw_read::switch_cpus3.data    583000302                       # Total read bandwidth from this memory (bytes/s)
system.mem_ctrls.bw_read::total            1328327232                       # Total read bandwidth from this memory (bytes/s)
system.mem_ctrls.bw_inst_read::switch_cpus0.inst    151741277                       # Instruction read bandwidth from this memory (bytes/s)
system.mem_ctrls.bw_inst_read::switch_cpus1.inst     62383719                       # Instruction read bandwidth from this memory (bytes/s)
system.mem_ctrls.bw_inst_read::switch_cpus2.inst      2632905                       # Instruction read bandwidth from this memory (bytes/s)
system.mem_ctrls.bw_inst_read::switch_cpus3.inst    202733653                       # Instruction read bandwidth from this memory (bytes/s)
system.mem_ctrls.bw_inst_read::total        419491554                       # Instruction read bandwidth from this memory (bytes/s)
system.mem_ctrls.bw_write::writebacks       560969876                       # Write bandwidth from this memory (bytes/s)
system.mem_ctrls.bw_write::total            560969876                       # Write bandwidth from this memory (bytes/s)
system.mem_ctrls.bw_total::writebacks       560969876                       # Total bandwidth to/from this memory (bytes/s)
system.mem_ctrls.bw_total::switch_cpus0.inst    151741277                       # Total bandwidth to/from this memory (bytes/s)
system.mem_ctrls.bw_total::switch_cpus0.data    207193471                       # Total bandwidth to/from this memory (bytes/s)
system.mem_ctrls.bw_total::switch_cpus1.inst     62383719                       # Total bandwidth to/from this memory (bytes/s)
system.mem_ctrls.bw_total::switch_cpus1.data    116707526                       # Total bandwidth to/from this memory (bytes/s)
system.mem_ctrls.bw_total::switch_cpus2.inst      2632905                       # Total bandwidth to/from this memory (bytes/s)
system.mem_ctrls.bw_total::switch_cpus2.data      1934379                       # Total bandwidth to/from this memory (bytes/s)
system.mem_ctrls.bw_total::switch_cpus3.inst    202733653                       # Total bandwidth to/from this memory (bytes/s)
system.mem_ctrls.bw_total::switch_cpus3.data    583000302                       # Total bandwidth to/from this memory (bytes/s)
system.mem_ctrls.bw_total::total           1889297109                       # Total bandwidth to/from this memory (bytes/s)
system.mem_ctrls.readReqs                       24721                       # Number of read requests accepted
system.mem_ctrls.writeReqs                      10440                       # Number of write requests accepted
system.mem_ctrls.readBursts                     24721                       # Number of DRAM read bursts, including those serviced by the write queue
system.mem_ctrls.writeBursts                    10440                       # Number of DRAM write bursts, including those merged in the write queue
system.mem_ctrls.bytesReadDRAM                1577792                       # Total number of bytes read from DRAM
system.mem_ctrls.bytesReadWrQ                    4352                       # Total number of bytes read from write queue
system.mem_ctrls.bytesWritten                  666816                       # Total number of bytes written to DRAM
system.mem_ctrls.bytesReadSys                 1582144                       # Total read bytes from the system interface side
system.mem_ctrls.bytesWrittenSys               668160                       # Total written bytes from the system interface side
system.mem_ctrls.servicedByWrQ                     68                       # Number of DRAM read bursts serviced by the write queue
system.mem_ctrls.mergedWrBursts                     0                       # Number of DRAM write bursts merged with an existing one
system.mem_ctrls.neitherReadNorWriteReqs           62                       # Number of requests that are neither read nor write
system.mem_ctrls.perBankRdBursts::0              1167                       # Per bank write bursts
system.mem_ctrls.perBankRdBursts::1              1205                       # Per bank write bursts
system.mem_ctrls.perBankRdBursts::2              1562                       # Per bank write bursts
system.mem_ctrls.perBankRdBursts::3               960                       # Per bank write bursts
system.mem_ctrls.perBankRdBursts::4              1282                       # Per bank write bursts
system.mem_ctrls.perBankRdBursts::5              1960                       # Per bank write bursts
system.mem_ctrls.perBankRdBursts::6              1427                       # Per bank write bursts
system.mem_ctrls.perBankRdBursts::7              1217                       # Per bank write bursts
system.mem_ctrls.perBankRdBursts::8              1809                       # Per bank write bursts
system.mem_ctrls.perBankRdBursts::9              1925                       # Per bank write bursts
system.mem_ctrls.perBankRdBursts::10             1402                       # Per bank write bursts
system.mem_ctrls.perBankRdBursts::11             1300                       # Per bank write bursts
system.mem_ctrls.perBankRdBursts::12             1738                       # Per bank write bursts
system.mem_ctrls.perBankRdBursts::13             2457                       # Per bank write bursts
system.mem_ctrls.perBankRdBursts::14             1695                       # Per bank write bursts
system.mem_ctrls.perBankRdBursts::15             1547                       # Per bank write bursts
system.mem_ctrls.perBankWrBursts::0               424                       # Per bank write bursts
system.mem_ctrls.perBankWrBursts::1               622                       # Per bank write bursts
system.mem_ctrls.perBankWrBursts::2               390                       # Per bank write bursts
system.mem_ctrls.perBankWrBursts::3               200                       # Per bank write bursts
system.mem_ctrls.perBankWrBursts::4               322                       # Per bank write bursts
system.mem_ctrls.perBankWrBursts::5               803                       # Per bank write bursts
system.mem_ctrls.perBankWrBursts::6               403                       # Per bank write bursts
system.mem_ctrls.perBankWrBursts::7               301                       # Per bank write bursts
system.mem_ctrls.perBankWrBursts::8               464                       # Per bank write bursts
system.mem_ctrls.perBankWrBursts::9               605                       # Per bank write bursts
system.mem_ctrls.perBankWrBursts::10              777                       # Per bank write bursts
system.mem_ctrls.perBankWrBursts::11              765                       # Per bank write bursts
system.mem_ctrls.perBankWrBursts::12             1150                       # Per bank write bursts
system.mem_ctrls.perBankWrBursts::13             1196                       # Per bank write bursts
system.mem_ctrls.perBankWrBursts::14             1034                       # Per bank write bursts
system.mem_ctrls.perBankWrBursts::15              963                       # Per bank write bursts
system.mem_ctrls.numRdRetry                         0                       # Number of times read queue was full causing retry
system.mem_ctrls.numWrRetry                         0                       # Number of times write queue was full causing retry
system.mem_ctrls.totGap                    1190992500                       # Total gap between requests
system.mem_ctrls.readPktSize::0                     0                       # Read request sizes (log2)
system.mem_ctrls.readPktSize::1                     0                       # Read request sizes (log2)
system.mem_ctrls.readPktSize::2                     0                       # Read request sizes (log2)
system.mem_ctrls.readPktSize::3                     0                       # Read request sizes (log2)
system.mem_ctrls.readPktSize::4                     0                       # Read request sizes (log2)
system.mem_ctrls.readPktSize::5                     0                       # Read request sizes (log2)
system.mem_ctrls.readPktSize::6                 24721                       # Read request sizes (log2)
system.mem_ctrls.writePktSize::0                    0                       # Write request sizes (log2)
system.mem_ctrls.writePktSize::1                    0                       # Write request sizes (log2)
system.mem_ctrls.writePktSize::2                    0                       # Write request sizes (log2)
system.mem_ctrls.writePktSize::3                    0                       # Write request sizes (log2)
system.mem_ctrls.writePktSize::4                    0                       # Write request sizes (log2)
system.mem_ctrls.writePktSize::5                    0                       # Write request sizes (log2)
system.mem_ctrls.writePktSize::6                10440                       # Write request sizes (log2)
system.mem_ctrls.rdQLenPdf::0                   11418                       # What read queue length does an incoming req see
system.mem_ctrls.rdQLenPdf::1                    6763                       # What read queue length does an incoming req see
system.mem_ctrls.rdQLenPdf::2                    3855                       # What read queue length does an incoming req see
system.mem_ctrls.rdQLenPdf::3                    2180                       # What read queue length does an incoming req see
system.mem_ctrls.rdQLenPdf::4                     270                       # What read queue length does an incoming req see
system.mem_ctrls.rdQLenPdf::5                     100                       # What read queue length does an incoming req see
system.mem_ctrls.rdQLenPdf::6                      45                       # What read queue length does an incoming req see
system.mem_ctrls.rdQLenPdf::7                      16                       # What read queue length does an incoming req see
system.mem_ctrls.rdQLenPdf::8                       3                       # What read queue length does an incoming req see
system.mem_ctrls.rdQLenPdf::9                       2                       # What read queue length does an incoming req see
system.mem_ctrls.rdQLenPdf::10                      1                       # What read queue length does an incoming req see
system.mem_ctrls.rdQLenPdf::11                      0                       # What read queue length does an incoming req see
system.mem_ctrls.rdQLenPdf::12                      0                       # What read queue length does an incoming req see
system.mem_ctrls.rdQLenPdf::13                      0                       # What read queue length does an incoming req see
system.mem_ctrls.rdQLenPdf::14                      0                       # What read queue length does an incoming req see
system.mem_ctrls.rdQLenPdf::15                      0                       # What read queue length does an incoming req see
system.mem_ctrls.rdQLenPdf::16                      0                       # What read queue length does an incoming req see
system.mem_ctrls.rdQLenPdf::17                      0                       # What read queue length does an incoming req see
system.mem_ctrls.rdQLenPdf::18                      0                       # What read queue length does an incoming req see
system.mem_ctrls.rdQLenPdf::19                      0                       # What read queue length does an incoming req see
system.mem_ctrls.rdQLenPdf::20                      0                       # What read queue length does an incoming req see
system.mem_ctrls.rdQLenPdf::21                      0                       # What read queue length does an incoming req see
system.mem_ctrls.rdQLenPdf::22                      0                       # What read queue length does an incoming req see
system.mem_ctrls.rdQLenPdf::23                      0                       # What read queue length does an incoming req see
system.mem_ctrls.rdQLenPdf::24                      0                       # What read queue length does an incoming req see
system.mem_ctrls.rdQLenPdf::25                      0                       # What read queue length does an incoming req see
system.mem_ctrls.rdQLenPdf::26                      0                       # What read queue length does an incoming req see
system.mem_ctrls.rdQLenPdf::27                      0                       # What read queue length does an incoming req see
system.mem_ctrls.rdQLenPdf::28                      0                       # What read queue length does an incoming req see
system.mem_ctrls.rdQLenPdf::29                      0                       # What read queue length does an incoming req see
system.mem_ctrls.rdQLenPdf::30                      0                       # What read queue length does an incoming req see
system.mem_ctrls.rdQLenPdf::31                      0                       # What read queue length does an incoming req see
system.mem_ctrls.wrQLenPdf::0                       1                       # What write queue length does an incoming req see
system.mem_ctrls.wrQLenPdf::1                       1                       # What write queue length does an incoming req see
system.mem_ctrls.wrQLenPdf::2                       1                       # What write queue length does an incoming req see
system.mem_ctrls.wrQLenPdf::3                       1                       # What write queue length does an incoming req see
system.mem_ctrls.wrQLenPdf::4                       1                       # What write queue length does an incoming req see
system.mem_ctrls.wrQLenPdf::5                       1                       # What write queue length does an incoming req see
system.mem_ctrls.wrQLenPdf::6                       1                       # What write queue length does an incoming req see
system.mem_ctrls.wrQLenPdf::7                       1                       # What write queue length does an incoming req see
system.mem_ctrls.wrQLenPdf::8                       1                       # What write queue length does an incoming req see
system.mem_ctrls.wrQLenPdf::9                       1                       # What write queue length does an incoming req see
system.mem_ctrls.wrQLenPdf::10                      1                       # What write queue length does an incoming req see
system.mem_ctrls.wrQLenPdf::11                      1                       # What write queue length does an incoming req see
system.mem_ctrls.wrQLenPdf::12                      1                       # What write queue length does an incoming req see
system.mem_ctrls.wrQLenPdf::13                      1                       # What write queue length does an incoming req see
system.mem_ctrls.wrQLenPdf::14                      1                       # What write queue length does an incoming req see
system.mem_ctrls.wrQLenPdf::15                     45                       # What write queue length does an incoming req see
system.mem_ctrls.wrQLenPdf::16                     51                       # What write queue length does an incoming req see
system.mem_ctrls.wrQLenPdf::17                    295                       # What write queue length does an incoming req see
system.mem_ctrls.wrQLenPdf::18                    456                       # What write queue length does an incoming req see
system.mem_ctrls.wrQLenPdf::19                    569                       # What write queue length does an incoming req see
system.mem_ctrls.wrQLenPdf::20                    642                       # What write queue length does an incoming req see
system.mem_ctrls.wrQLenPdf::21                    669                       # What write queue length does an incoming req see
system.mem_ctrls.wrQLenPdf::22                    666                       # What write queue length does an incoming req see
system.mem_ctrls.wrQLenPdf::23                    672                       # What write queue length does an incoming req see
system.mem_ctrls.wrQLenPdf::24                    679                       # What write queue length does an incoming req see
system.mem_ctrls.wrQLenPdf::25                    689                       # What write queue length does an incoming req see
system.mem_ctrls.wrQLenPdf::26                    788                       # What write queue length does an incoming req see
system.mem_ctrls.wrQLenPdf::27                    705                       # What write queue length does an incoming req see
system.mem_ctrls.wrQLenPdf::28                    730                       # What write queue length does an incoming req see
system.mem_ctrls.wrQLenPdf::29                    748                       # What write queue length does an incoming req see
system.mem_ctrls.wrQLenPdf::30                    685                       # What write queue length does an incoming req see
system.mem_ctrls.wrQLenPdf::31                    673                       # What write queue length does an incoming req see
system.mem_ctrls.wrQLenPdf::32                    652                       # What write queue length does an incoming req see
system.mem_ctrls.wrQLenPdf::33                      9                       # What write queue length does an incoming req see
system.mem_ctrls.wrQLenPdf::34                      2                       # What write queue length does an incoming req see
system.mem_ctrls.wrQLenPdf::35                      0                       # What write queue length does an incoming req see
system.mem_ctrls.wrQLenPdf::36                      0                       # What write queue length does an incoming req see
system.mem_ctrls.wrQLenPdf::37                      0                       # What write queue length does an incoming req see
system.mem_ctrls.wrQLenPdf::38                      0                       # What write queue length does an incoming req see
system.mem_ctrls.wrQLenPdf::39                      0                       # What write queue length does an incoming req see
system.mem_ctrls.wrQLenPdf::40                      0                       # What write queue length does an incoming req see
system.mem_ctrls.wrQLenPdf::41                      0                       # What write queue length does an incoming req see
system.mem_ctrls.wrQLenPdf::42                      0                       # What write queue length does an incoming req see
system.mem_ctrls.wrQLenPdf::43                      0                       # What write queue length does an incoming req see
system.mem_ctrls.wrQLenPdf::44                      0                       # What write queue length does an incoming req see
system.mem_ctrls.wrQLenPdf::45                      0                       # What write queue length does an incoming req see
system.mem_ctrls.wrQLenPdf::46                      0                       # What write queue length does an incoming req see
system.mem_ctrls.wrQLenPdf::47                      0                       # What write queue length does an incoming req see
system.mem_ctrls.wrQLenPdf::48                      0                       # What write queue length does an incoming req see
system.mem_ctrls.wrQLenPdf::49                      0                       # What write queue length does an incoming req see
system.mem_ctrls.wrQLenPdf::50                      0                       # What write queue length does an incoming req see
system.mem_ctrls.wrQLenPdf::51                      0                       # What write queue length does an incoming req see
system.mem_ctrls.wrQLenPdf::52                      0                       # What write queue length does an incoming req see
system.mem_ctrls.wrQLenPdf::53                      0                       # What write queue length does an incoming req see
system.mem_ctrls.wrQLenPdf::54                      0                       # What write queue length does an incoming req see
system.mem_ctrls.wrQLenPdf::55                      0                       # What write queue length does an incoming req see
system.mem_ctrls.wrQLenPdf::56                      0                       # What write queue length does an incoming req see
system.mem_ctrls.wrQLenPdf::57                      0                       # What write queue length does an incoming req see
system.mem_ctrls.wrQLenPdf::58                      0                       # What write queue length does an incoming req see
system.mem_ctrls.wrQLenPdf::59                      0                       # What write queue length does an incoming req see
system.mem_ctrls.wrQLenPdf::60                      0                       # What write queue length does an incoming req see
system.mem_ctrls.wrQLenPdf::61                      0                       # What write queue length does an incoming req see
system.mem_ctrls.wrQLenPdf::62                      0                       # What write queue length does an incoming req see
system.mem_ctrls.wrQLenPdf::63                      0                       # What write queue length does an incoming req see
system.mem_ctrls.bytesPerActivate::samples         9236                       # Bytes accessed per row activation
system.mem_ctrls.bytesPerActivate::mean    242.563880                       # Bytes accessed per row activation
system.mem_ctrls.bytesPerActivate::gmean   142.270169                       # Bytes accessed per row activation
system.mem_ctrls.bytesPerActivate::stdev   294.596787                       # Bytes accessed per row activation
system.mem_ctrls.bytesPerActivate::0-127         4420     47.86%     47.86% # Bytes accessed per row activation
system.mem_ctrls.bytesPerActivate::128-255         2250     24.36%     72.22% # Bytes accessed per row activation
system.mem_ctrls.bytesPerActivate::256-383          751      8.13%     80.35% # Bytes accessed per row activation
system.mem_ctrls.bytesPerActivate::384-511          365      3.95%     84.30% # Bytes accessed per row activation
system.mem_ctrls.bytesPerActivate::512-639          256      2.77%     87.07% # Bytes accessed per row activation
system.mem_ctrls.bytesPerActivate::640-767          160      1.73%     88.80% # Bytes accessed per row activation
system.mem_ctrls.bytesPerActivate::768-895          136      1.47%     90.28% # Bytes accessed per row activation
system.mem_ctrls.bytesPerActivate::896-1023          121      1.31%     91.59% # Bytes accessed per row activation
system.mem_ctrls.bytesPerActivate::1024-1151          777      8.41%    100.00% # Bytes accessed per row activation
system.mem_ctrls.bytesPerActivate::total         9236                       # Bytes accessed per row activation
system.mem_ctrls.rdPerTurnAround::samples          644                       # Reads before turning the bus around for writes
system.mem_ctrls.rdPerTurnAround::mean      38.229814                       # Reads before turning the bus around for writes
system.mem_ctrls.rdPerTurnAround::gmean     31.610889                       # Reads before turning the bus around for writes
system.mem_ctrls.rdPerTurnAround::stdev     26.142271                       # Reads before turning the bus around for writes
system.mem_ctrls.rdPerTurnAround::8-15             38      5.90%      5.90% # Reads before turning the bus around for writes
system.mem_ctrls.rdPerTurnAround::16-23           197     30.59%     36.49% # Reads before turning the bus around for writes
system.mem_ctrls.rdPerTurnAround::24-31            98     15.22%     51.71% # Reads before turning the bus around for writes
system.mem_ctrls.rdPerTurnAround::32-39            64      9.94%     61.65% # Reads before turning the bus around for writes
system.mem_ctrls.rdPerTurnAround::40-47            74     11.49%     73.14% # Reads before turning the bus around for writes
system.mem_ctrls.rdPerTurnAround::48-55            55      8.54%     81.68% # Reads before turning the bus around for writes
system.mem_ctrls.rdPerTurnAround::56-63            28      4.35%     86.02% # Reads before turning the bus around for writes
system.mem_ctrls.rdPerTurnAround::64-71            24      3.73%     89.75% # Reads before turning the bus around for writes
system.mem_ctrls.rdPerTurnAround::72-79            20      3.11%     92.86% # Reads before turning the bus around for writes
system.mem_ctrls.rdPerTurnAround::80-87            10      1.55%     94.41% # Reads before turning the bus around for writes
system.mem_ctrls.rdPerTurnAround::88-95            11      1.71%     96.12% # Reads before turning the bus around for writes
system.mem_ctrls.rdPerTurnAround::96-103            9      1.40%     97.52% # Reads before turning the bus around for writes
system.mem_ctrls.rdPerTurnAround::104-111            2      0.31%     97.83% # Reads before turning the bus around for writes
system.mem_ctrls.rdPerTurnAround::112-119            4      0.62%     98.45% # Reads before turning the bus around for writes
system.mem_ctrls.rdPerTurnAround::120-127            2      0.31%     98.76% # Reads before turning the bus around for writes
system.mem_ctrls.rdPerTurnAround::128-135            1      0.16%     98.91% # Reads before turning the bus around for writes
system.mem_ctrls.rdPerTurnAround::136-143            1      0.16%     99.07% # Reads before turning the bus around for writes
system.mem_ctrls.rdPerTurnAround::144-151            2      0.31%     99.38% # Reads before turning the bus around for writes
system.mem_ctrls.rdPerTurnAround::152-159            1      0.16%     99.53% # Reads before turning the bus around for writes
system.mem_ctrls.rdPerTurnAround::160-167            1      0.16%     99.69% # Reads before turning the bus around for writes
system.mem_ctrls.rdPerTurnAround::168-175            1      0.16%     99.84% # Reads before turning the bus around for writes
system.mem_ctrls.rdPerTurnAround::200-207            1      0.16%    100.00% # Reads before turning the bus around for writes
system.mem_ctrls.rdPerTurnAround::total           644                       # Reads before turning the bus around for writes
system.mem_ctrls.wrPerTurnAround::samples          644                       # Writes before turning the bus around for reads
system.mem_ctrls.wrPerTurnAround::mean      16.178571                       # Writes before turning the bus around for reads
system.mem_ctrls.wrPerTurnAround::gmean     16.167088                       # Writes before turning the bus around for reads
system.mem_ctrls.wrPerTurnAround::stdev      0.638895                       # Writes before turning the bus around for reads
system.mem_ctrls.wrPerTurnAround::16              592     91.93%     91.93% # Writes before turning the bus around for reads
system.mem_ctrls.wrPerTurnAround::17                5      0.78%     92.70% # Writes before turning the bus around for reads
system.mem_ctrls.wrPerTurnAround::18               35      5.43%     98.14% # Writes before turning the bus around for reads
system.mem_ctrls.wrPerTurnAround::19                9      1.40%     99.53% # Writes before turning the bus around for reads
system.mem_ctrls.wrPerTurnAround::20                2      0.31%     99.84% # Writes before turning the bus around for reads
system.mem_ctrls.wrPerTurnAround::21                1      0.16%    100.00% # Writes before turning the bus around for reads
system.mem_ctrls.wrPerTurnAround::total           644                       # Writes before turning the bus around for reads
system.mem_ctrls.totQLat                    501703750                       # Total ticks spent queuing
system.mem_ctrls.totMemAccLat               963947500                       # Total ticks spent from burst creation until serviced by the DRAM
system.mem_ctrls.totBusLat                  123265000                       # Total ticks spent in databus transfers
system.mem_ctrls.avgQLat                     20350.62                       # Average queueing delay per DRAM burst
system.mem_ctrls.avgBusLat                    5000.00                       # Average bus latency per DRAM burst
system.mem_ctrls.avgMemAccLat                39100.62                       # Average memory access latency per DRAM burst
system.mem_ctrls.avgRdBW                      1324.67                       # Average DRAM read bandwidth in MiByte/s
system.mem_ctrls.avgWrBW                       559.84                       # Average achieved write bandwidth in MiByte/s
system.mem_ctrls.avgRdBWSys                   1328.33                       # Average system read bandwidth in MiByte/s
system.mem_ctrls.avgWrBWSys                    560.97                       # Average system write bandwidth in MiByte/s
system.mem_ctrls.peakBW                      12800.00                       # Theoretical peak bandwidth in MiByte/s
system.mem_ctrls.busUtil                        14.72                       # Data bus utilization in percentage
system.mem_ctrls.busUtilRead                    10.35                       # Data bus utilization in percentage for reads
system.mem_ctrls.busUtilWrite                    4.37                       # Data bus utilization in percentage for writes
system.mem_ctrls.avgRdQLen                       1.93                       # Average read queue length when enqueuing
system.mem_ctrls.avgWrQLen                      25.72                       # Average write queue length when enqueuing
system.mem_ctrls.readRowHits                    18403                       # Number of row buffer hits during reads
system.mem_ctrls.writeRowHits                    7417                       # Number of row buffer hits during writes
system.mem_ctrls.readRowHitRate                 74.65                       # Row buffer hit rate for reads
system.mem_ctrls.writeRowHitRate                71.04                       # Row buffer hit rate for writes
system.mem_ctrls.avgGap                      33872.54                       # Average gap between requests
system.mem_ctrls.pageHitRate                    73.58                       # Row buffer hit rate, read and write combined
system.mem_ctrls_0.actEnergy                 27072360                       # Energy for activate commands per rank (pJ)
system.mem_ctrls_0.preEnergy                 14771625                       # Energy for precharge commands per rank (pJ)
system.mem_ctrls_0.readEnergy                83686200                       # Energy for read commands per rank (pJ)
system.mem_ctrls_0.writeEnergy               22122720                       # Energy for write commands per rank (pJ)
system.mem_ctrls_0.refreshEnergy             77301120                       # Energy for refresh commands per rank (pJ)
system.mem_ctrls_0.actBackEnergy            785175570                       # Energy for active background per rank (pJ)
system.mem_ctrls_0.preBackEnergy             21511500                       # Energy for precharge background per rank (pJ)
system.mem_ctrls_0.totalEnergy             1031641095                       # Total energy per rank (pJ)
system.mem_ctrls_0.averagePower            871.487785                       # Core power per rank (mW)
system.mem_ctrls_0.memoryStateTime::IDLE     30856000                       # Time in different power states
system.mem_ctrls_0.memoryStateTime::REF      39520000                       # Time in different power states
system.mem_ctrls_0.memoryStateTime::PRE_PDN            0                       # Time in different power states
system.mem_ctrls_0.memoryStateTime::ACT    1113640000                       # Time in different power states
system.mem_ctrls_0.memoryStateTime::ACT_PDN            0                       # Time in different power states
system.mem_ctrls_1.actEnergy                 42305760                       # Energy for activate commands per rank (pJ)
system.mem_ctrls_1.preEnergy                 23083500                       # Energy for precharge commands per rank (pJ)
system.mem_ctrls_1.readEnergy               107725800                       # Energy for read commands per rank (pJ)
system.mem_ctrls_1.writeEnergy               44964720                       # Energy for write commands per rank (pJ)
system.mem_ctrls_1.refreshEnergy             77301120                       # Energy for refresh commands per rank (pJ)
system.mem_ctrls_1.actBackEnergy            792514035                       # Energy for active background per rank (pJ)
system.mem_ctrls_1.preBackEnergy             15074250                       # Energy for precharge background per rank (pJ)
system.mem_ctrls_1.totalEnergy             1102969185                       # Total energy per rank (pJ)
system.mem_ctrls_1.averagePower            931.742809                       # Core power per rank (mW)
system.mem_ctrls_1.memoryStateTime::IDLE     20261750                       # Time in different power states
system.mem_ctrls_1.memoryStateTime::REF      39520000                       # Time in different power states
system.mem_ctrls_1.memoryStateTime::PRE_PDN            0                       # Time in different power states
system.mem_ctrls_1.memoryStateTime::ACT    1124002000                       # Time in different power states
system.mem_ctrls_1.memoryStateTime::ACT_PDN            0                       # Time in different power states
system.cpu_voltage_domain.voltage                   1                       # Voltage in Volts
system.cpu_clk_domain.clock                       500                       # Clock period in ticks
system.cpu0.dtb.fetch_hits                          0                       # ITB hits
system.cpu0.dtb.fetch_misses                        0                       # ITB misses
system.cpu0.dtb.fetch_acv                           0                       # ITB acv
system.cpu0.dtb.fetch_accesses                      0                       # ITB accesses
system.cpu0.dtb.read_hits                           0                       # DTB read hits
system.cpu0.dtb.read_misses                         0                       # DTB read misses
system.cpu0.dtb.read_acv                            0                       # DTB read access violations
system.cpu0.dtb.read_accesses                       0                       # DTB read accesses
system.cpu0.dtb.write_hits                          0                       # DTB write hits
system.cpu0.dtb.write_misses                        0                       # DTB write misses
system.cpu0.dtb.write_acv                           0                       # DTB write access violations
system.cpu0.dtb.write_accesses                      0                       # DTB write accesses
system.cpu0.dtb.data_hits                           0                       # DTB hits
system.cpu0.dtb.data_misses                         0                       # DTB misses
system.cpu0.dtb.data_acv                            0                       # DTB access violations
system.cpu0.dtb.data_accesses                       0                       # DTB accesses
system.cpu0.itb.fetch_hits                          0                       # ITB hits
system.cpu0.itb.fetch_misses                        0                       # ITB misses
system.cpu0.itb.fetch_acv                           0                       # ITB acv
system.cpu0.itb.fetch_accesses                      0                       # ITB accesses
system.cpu0.itb.read_hits                           0                       # DTB read hits
system.cpu0.itb.read_misses                         0                       # DTB read misses
system.cpu0.itb.read_acv                            0                       # DTB read access violations
system.cpu0.itb.read_accesses                       0                       # DTB read accesses
system.cpu0.itb.write_hits                          0                       # DTB write hits
system.cpu0.itb.write_misses                        0                       # DTB write misses
system.cpu0.itb.write_acv                           0                       # DTB write access violations
system.cpu0.itb.write_accesses                      0                       # DTB write accesses
system.cpu0.itb.data_hits                           0                       # DTB hits
system.cpu0.itb.data_misses                         0                       # DTB misses
system.cpu0.itb.data_acv                            0                       # DTB access violations
system.cpu0.itb.data_accesses                       0                       # DTB accesses
system.cpu0.numCycles                               0                       # number of cpu cycles simulated
system.cpu0.numWorkItemsStarted                     0                       # number of work items this cpu started
system.cpu0.numWorkItemsCompleted                   0                       # number of work items this cpu completed
system.cpu0.committedInsts                          0                       # Number of instructions committed
system.cpu0.committedOps                            0                       # Number of ops (including micro ops) committed
system.cpu0.num_int_alu_accesses                    0                       # Number of integer alu accesses
system.cpu0.num_fp_alu_accesses                     0                       # Number of float alu accesses
system.cpu0.num_func_calls                          0                       # number of times a function call or return occured
system.cpu0.num_conditional_control_insts            0                       # number of instructions that are conditional controls
system.cpu0.num_int_insts                           0                       # number of integer instructions
system.cpu0.num_fp_insts                            0                       # number of float instructions
system.cpu0.num_int_register_reads                  0                       # number of times the integer registers were read
system.cpu0.num_int_register_writes                 0                       # number of times the integer registers were written
system.cpu0.num_fp_register_reads                   0                       # number of times the floating registers were read
system.cpu0.num_fp_register_writes                  0                       # number of times the floating registers were written
system.cpu0.num_mem_refs                            0                       # number of memory refs
system.cpu0.num_load_insts                          0                       # Number of load instructions
system.cpu0.num_store_insts                         0                       # Number of store instructions
system.cpu0.num_idle_cycles                         0                       # Number of idle cycles
system.cpu0.num_busy_cycles                         0                       # Number of busy cycles
system.cpu0.not_idle_fraction                       1                       # Percentage of non-idle cycles
system.cpu0.idle_fraction                           0                       # Percentage of idle cycles
system.cpu0.op_class::No_OpClass                    0                       # Class of executed instruction
system.cpu0.op_class::IntAlu                        0                       # Class of executed instruction
system.cpu0.op_class::IntMult                       0                       # Class of executed instruction
system.cpu0.op_class::IntDiv                        0                       # Class of executed instruction
system.cpu0.op_class::FloatAdd                      0                       # Class of executed instruction
system.cpu0.op_class::FloatCmp                      0                       # Class of executed instruction
system.cpu0.op_class::FloatCvt                      0                       # Class of executed instruction
system.cpu0.op_class::FloatMult                     0                       # Class of executed instruction
system.cpu0.op_class::FloatDiv                      0                       # Class of executed instruction
system.cpu0.op_class::FloatSqrt                     0                       # Class of executed instruction
system.cpu0.op_class::SimdAdd                       0                       # Class of executed instruction
system.cpu0.op_class::SimdAddAcc                    0                       # Class of executed instruction
system.cpu0.op_class::SimdAlu                       0                       # Class of executed instruction
system.cpu0.op_class::SimdCmp                       0                       # Class of executed instruction
system.cpu0.op_class::SimdCvt                       0                       # Class of executed instruction
system.cpu0.op_class::SimdMisc                      0                       # Class of executed instruction
system.cpu0.op_class::SimdMult                      0                       # Class of executed instruction
system.cpu0.op_class::SimdMultAcc                   0                       # Class of executed instruction
system.cpu0.op_class::SimdShift                     0                       # Class of executed instruction
system.cpu0.op_class::SimdShiftAcc                  0                       # Class of executed instruction
system.cpu0.op_class::SimdSqrt                      0                       # Class of executed instruction
system.cpu0.op_class::SimdFloatAdd                  0                       # Class of executed instruction
system.cpu0.op_class::SimdFloatAlu                  0                       # Class of executed instruction
system.cpu0.op_class::SimdFloatCmp                  0                       # Class of executed instruction
system.cpu0.op_class::SimdFloatCvt                  0                       # Class of executed instruction
system.cpu0.op_class::SimdFloatDiv                  0                       # Class of executed instruction
system.cpu0.op_class::SimdFloatMisc                 0                       # Class of executed instruction
system.cpu0.op_class::SimdFloatMult                 0                       # Class of executed instruction
system.cpu0.op_class::SimdFloatMultAcc              0                       # Class of executed instruction
system.cpu0.op_class::SimdFloatSqrt                 0                       # Class of executed instruction
system.cpu0.op_class::MemRead                       0                       # Class of executed instruction
system.cpu0.op_class::MemWrite                      0                       # Class of executed instruction
system.cpu0.op_class::IprAccess                     0                       # Class of executed instruction
system.cpu0.op_class::InstPrefetch                  0                       # Class of executed instruction
system.cpu0.op_class::total                         0                       # Class of executed instruction
system.cpu0.kern.inst.arm                           0                       # number of arm instructions executed
system.cpu0.kern.inst.quiesce                       3                       # number of quiesce instructions executed
system.cpu0.kern.inst.hwrei                       597                       # number of hwrei instructions executed
system.cpu0.kern.ipl_count::0                     168     46.28%     46.28% # number of times we switched to this ipl
system.cpu0.kern.ipl_count::22                      1      0.28%     46.56% # number of times we switched to this ipl
system.cpu0.kern.ipl_count::30                      1      0.28%     46.83% # number of times we switched to this ipl
system.cpu0.kern.ipl_count::31                    193     53.17%    100.00% # number of times we switched to this ipl
system.cpu0.kern.ipl_count::total                 363                       # number of times we switched to this ipl
system.cpu0.kern.ipl_good::0                      168     49.85%     49.85% # number of times we switched to this ipl from a different ipl
system.cpu0.kern.ipl_good::22                       1      0.30%     50.15% # number of times we switched to this ipl from a different ipl
system.cpu0.kern.ipl_good::30                       1      0.30%     50.45% # number of times we switched to this ipl from a different ipl
system.cpu0.kern.ipl_good::31                     167     49.55%    100.00% # number of times we switched to this ipl from a different ipl
system.cpu0.kern.ipl_good::total                  337                       # number of times we switched to this ipl from a different ipl
system.cpu0.kern.ipl_ticks::0               494840000     88.07%     88.07% # number of cycles we spent at this ipl
system.cpu0.kern.ipl_ticks::22                 956500      0.17%     88.24% # number of cycles we spent at this ipl
system.cpu0.kern.ipl_ticks::30                1809500      0.32%     88.56% # number of cycles we spent at this ipl
system.cpu0.kern.ipl_ticks::31               64253000     11.44%    100.00% # number of cycles we spent at this ipl
system.cpu0.kern.ipl_ticks::total           561859000                       # number of cycles we spent at this ipl
system.cpu0.kern.ipl_used::0                        1                       # fraction of swpipl calls that actually changed the ipl
system.cpu0.kern.ipl_used::22                       1                       # fraction of swpipl calls that actually changed the ipl
system.cpu0.kern.ipl_used::30                       1                       # fraction of swpipl calls that actually changed the ipl
system.cpu0.kern.ipl_used::31                0.865285                       # fraction of swpipl calls that actually changed the ipl
system.cpu0.kern.ipl_used::total             0.928375                       # fraction of swpipl calls that actually changed the ipl
system.cpu0.kern.syscall::2                         1     33.33%     33.33% # number of syscalls executed
system.cpu0.kern.syscall::3                         1     33.33%     66.67% # number of syscalls executed
system.cpu0.kern.syscall::19                        1     33.33%    100.00% # number of syscalls executed
system.cpu0.kern.syscall::total                     3                       # number of syscalls executed
system.cpu0.kern.callpal::wripir                    1      0.26%      0.26% # number of callpals executed
system.cpu0.kern.callpal::swpctx                   12      3.08%      3.34% # number of callpals executed
system.cpu0.kern.callpal::tbi                       2      0.51%      3.86% # number of callpals executed
system.cpu0.kern.callpal::swpipl                  342     87.92%     91.77% # number of callpals executed
system.cpu0.kern.callpal::rdps                      2      0.51%     92.29% # number of callpals executed
system.cpu0.kern.callpal::rdusp                     1      0.26%     92.54% # number of callpals executed
system.cpu0.kern.callpal::rti                      19      4.88%     97.43% # number of callpals executed
system.cpu0.kern.callpal::callsys                   9      2.31%     99.74% # number of callpals executed
system.cpu0.kern.callpal::imb                       1      0.26%    100.00% # number of callpals executed
system.cpu0.kern.callpal::total                   389                       # number of callpals executed
system.cpu0.kern.mode_switch::kernel               32                       # number of protection mode switches
system.cpu0.kern.mode_switch::user                 17                       # number of protection mode switches
system.cpu0.kern.mode_switch::idle                  0                       # number of protection mode switches
system.cpu0.kern.mode_good::kernel                 18                      
system.cpu0.kern.mode_good::user                   17                      
system.cpu0.kern.mode_good::idle                    0                      
system.cpu0.kern.mode_switch_good::kernel     0.562500                       # fraction of useful protection mode switches
system.cpu0.kern.mode_switch_good::user             1                       # fraction of useful protection mode switches
system.cpu0.kern.mode_switch_good::idle           nan                       # fraction of useful protection mode switches
system.cpu0.kern.mode_switch_good::total     0.714286                       # fraction of useful protection mode switches
system.cpu0.kern.mode_ticks::kernel         241609500     73.50%     73.50% # number of ticks spent at the given mode
system.cpu0.kern.mode_ticks::user            87104500     26.50%    100.00% # number of ticks spent at the given mode
system.cpu0.kern.mode_ticks::idle                   0      0.00%    100.00% # number of ticks spent at the given mode
system.cpu0.kern.swap_context                      12                       # number of times the context was actually changed
system.cpu0.dcache.tags.replacements             4866                       # number of replacements
system.cpu0.dcache.tags.tagsinuse          505.474952                       # Cycle average of tags in use
system.cpu0.dcache.tags.total_refs              55706                       # Total number of references to valid blocks.
system.cpu0.dcache.tags.sampled_refs             4866                       # Sample count of references to valid blocks.
system.cpu0.dcache.tags.avg_refs            11.448007                       # Average number of references to valid blocks.
system.cpu0.dcache.tags.warmup_cycle                0                       # Cycle when the warmup percentage was hit.
system.cpu0.dcache.tags.occ_blocks::cpu0.data    24.734319                       # Average occupied blocks per requestor
system.cpu0.dcache.tags.occ_blocks::switch_cpus0.data   480.740633                       # Average occupied blocks per requestor
system.cpu0.dcache.tags.occ_percent::cpu0.data     0.048309                       # Average percentage of cache occupancy
system.cpu0.dcache.tags.occ_percent::switch_cpus0.data     0.938947                       # Average percentage of cache occupancy
system.cpu0.dcache.tags.occ_percent::total     0.987256                       # Average percentage of cache occupancy
system.cpu0.dcache.tags.occ_task_id_blocks::1024          501                       # Occupied blocks per task id
system.cpu0.dcache.tags.age_task_id_blocks_1024::2          492                       # Occupied blocks per task id
system.cpu0.dcache.tags.age_task_id_blocks_1024::3            9                       # Occupied blocks per task id
system.cpu0.dcache.tags.occ_task_id_percent::1024     0.978516                       # Percentage of cache occupancy per task id
system.cpu0.dcache.tags.tag_accesses           291495                       # Number of tag accesses
system.cpu0.dcache.tags.data_accesses          291495                       # Number of data accesses
system.cpu0.dcache.ReadReq_hits::switch_cpus0.data        33329                       # number of ReadReq hits
system.cpu0.dcache.ReadReq_hits::total          33329                       # number of ReadReq hits
system.cpu0.dcache.WriteReq_hits::switch_cpus0.data        13695                       # number of WriteReq hits
system.cpu0.dcache.WriteReq_hits::total         13695                       # number of WriteReq hits
system.cpu0.dcache.LoadLockedReq_hits::switch_cpus0.data          540                       # number of LoadLockedReq hits
system.cpu0.dcache.LoadLockedReq_hits::total          540                       # number of LoadLockedReq hits
system.cpu0.dcache.StoreCondReq_hits::switch_cpus0.data          597                       # number of StoreCondReq hits
system.cpu0.dcache.StoreCondReq_hits::total          597                       # number of StoreCondReq hits
system.cpu0.dcache.demand_hits::switch_cpus0.data        47024                       # number of demand (read+write) hits
system.cpu0.dcache.demand_hits::total           47024                       # number of demand (read+write) hits
system.cpu0.dcache.overall_hits::switch_cpus0.data        47024                       # number of overall hits
system.cpu0.dcache.overall_hits::total          47024                       # number of overall hits
system.cpu0.dcache.ReadReq_misses::switch_cpus0.data         8881                       # number of ReadReq misses
system.cpu0.dcache.ReadReq_misses::total         8881                       # number of ReadReq misses
system.cpu0.dcache.WriteReq_misses::switch_cpus0.data        14420                       # number of WriteReq misses
system.cpu0.dcache.WriteReq_misses::total        14420                       # number of WriteReq misses
system.cpu0.dcache.LoadLockedReq_misses::switch_cpus0.data          160                       # number of LoadLockedReq misses
system.cpu0.dcache.LoadLockedReq_misses::total          160                       # number of LoadLockedReq misses
system.cpu0.dcache.StoreCondReq_misses::switch_cpus0.data           22                       # number of StoreCondReq misses
system.cpu0.dcache.StoreCondReq_misses::total           22                       # number of StoreCondReq misses
system.cpu0.dcache.demand_misses::switch_cpus0.data        23301                       # number of demand (read+write) misses
system.cpu0.dcache.demand_misses::total         23301                       # number of demand (read+write) misses
system.cpu0.dcache.overall_misses::switch_cpus0.data        23301                       # number of overall misses
system.cpu0.dcache.overall_misses::total        23301                       # number of overall misses
system.cpu0.dcache.ReadReq_miss_latency::switch_cpus0.data    546707640                       # number of ReadReq miss cycles
system.cpu0.dcache.ReadReq_miss_latency::total    546707640                       # number of ReadReq miss cycles
system.cpu0.dcache.WriteReq_miss_latency::switch_cpus0.data   1100549984                       # number of WriteReq miss cycles
system.cpu0.dcache.WriteReq_miss_latency::total   1100549984                       # number of WriteReq miss cycles
system.cpu0.dcache.LoadLockedReq_miss_latency::switch_cpus0.data     10363997                       # number of LoadLockedReq miss cycles
system.cpu0.dcache.LoadLockedReq_miss_latency::total     10363997                       # number of LoadLockedReq miss cycles
system.cpu0.dcache.StoreCondReq_miss_latency::switch_cpus0.data       207504                       # number of StoreCondReq miss cycles
system.cpu0.dcache.StoreCondReq_miss_latency::total       207504                       # number of StoreCondReq miss cycles
system.cpu0.dcache.demand_miss_latency::switch_cpus0.data   1647257624                       # number of demand (read+write) miss cycles
system.cpu0.dcache.demand_miss_latency::total   1647257624                       # number of demand (read+write) miss cycles
system.cpu0.dcache.overall_miss_latency::switch_cpus0.data   1647257624                       # number of overall miss cycles
system.cpu0.dcache.overall_miss_latency::total   1647257624                       # number of overall miss cycles
system.cpu0.dcache.ReadReq_accesses::switch_cpus0.data        42210                       # number of ReadReq accesses(hits+misses)
system.cpu0.dcache.ReadReq_accesses::total        42210                       # number of ReadReq accesses(hits+misses)
system.cpu0.dcache.WriteReq_accesses::switch_cpus0.data        28115                       # number of WriteReq accesses(hits+misses)
system.cpu0.dcache.WriteReq_accesses::total        28115                       # number of WriteReq accesses(hits+misses)
system.cpu0.dcache.LoadLockedReq_accesses::switch_cpus0.data          700                       # number of LoadLockedReq accesses(hits+misses)
system.cpu0.dcache.LoadLockedReq_accesses::total          700                       # number of LoadLockedReq accesses(hits+misses)
system.cpu0.dcache.StoreCondReq_accesses::switch_cpus0.data          619                       # number of StoreCondReq accesses(hits+misses)
system.cpu0.dcache.StoreCondReq_accesses::total          619                       # number of StoreCondReq accesses(hits+misses)
system.cpu0.dcache.demand_accesses::switch_cpus0.data        70325                       # number of demand (read+write) accesses
system.cpu0.dcache.demand_accesses::total        70325                       # number of demand (read+write) accesses
system.cpu0.dcache.overall_accesses::switch_cpus0.data        70325                       # number of overall (read+write) accesses
system.cpu0.dcache.overall_accesses::total        70325                       # number of overall (read+write) accesses
system.cpu0.dcache.ReadReq_miss_rate::switch_cpus0.data     0.210400                       # miss rate for ReadReq accesses
system.cpu0.dcache.ReadReq_miss_rate::total     0.210400                       # miss rate for ReadReq accesses
system.cpu0.dcache.WriteReq_miss_rate::switch_cpus0.data     0.512893                       # miss rate for WriteReq accesses
system.cpu0.dcache.WriteReq_miss_rate::total     0.512893                       # miss rate for WriteReq accesses
system.cpu0.dcache.LoadLockedReq_miss_rate::switch_cpus0.data     0.228571                       # miss rate for LoadLockedReq accesses
system.cpu0.dcache.LoadLockedReq_miss_rate::total     0.228571                       # miss rate for LoadLockedReq accesses
system.cpu0.dcache.StoreCondReq_miss_rate::switch_cpus0.data     0.035541                       # miss rate for StoreCondReq accesses
system.cpu0.dcache.StoreCondReq_miss_rate::total     0.035541                       # miss rate for StoreCondReq accesses
system.cpu0.dcache.demand_miss_rate::switch_cpus0.data     0.331333                       # miss rate for demand accesses
system.cpu0.dcache.demand_miss_rate::total     0.331333                       # miss rate for demand accesses
system.cpu0.dcache.overall_miss_rate::switch_cpus0.data     0.331333                       # miss rate for overall accesses
system.cpu0.dcache.overall_miss_rate::total     0.331333                       # miss rate for overall accesses
system.cpu0.dcache.ReadReq_avg_miss_latency::switch_cpus0.data 61559.243328                       # average ReadReq miss latency
system.cpu0.dcache.ReadReq_avg_miss_latency::total 61559.243328                       # average ReadReq miss latency
system.cpu0.dcache.WriteReq_avg_miss_latency::switch_cpus0.data 76321.080721                       # average WriteReq miss latency
system.cpu0.dcache.WriteReq_avg_miss_latency::total 76321.080721                       # average WriteReq miss latency
system.cpu0.dcache.LoadLockedReq_avg_miss_latency::switch_cpus0.data 64774.981250                       # average LoadLockedReq miss latency
system.cpu0.dcache.LoadLockedReq_avg_miss_latency::total 64774.981250                       # average LoadLockedReq miss latency
system.cpu0.dcache.StoreCondReq_avg_miss_latency::switch_cpus0.data         9432                       # average StoreCondReq miss latency
system.cpu0.dcache.StoreCondReq_avg_miss_latency::total         9432                       # average StoreCondReq miss latency
system.cpu0.dcache.demand_avg_miss_latency::switch_cpus0.data 70694.717995                       # average overall miss latency
system.cpu0.dcache.demand_avg_miss_latency::total 70694.717995                       # average overall miss latency
system.cpu0.dcache.overall_avg_miss_latency::switch_cpus0.data 70694.717995                       # average overall miss latency
system.cpu0.dcache.overall_avg_miss_latency::total 70694.717995                       # average overall miss latency
system.cpu0.dcache.blocked_cycles::no_mshrs        93593                       # number of cycles access was blocked
system.cpu0.dcache.blocked_cycles::no_targets          453                       # number of cycles access was blocked
system.cpu0.dcache.blocked::no_mshrs             2002                       # number of cycles access was blocked
system.cpu0.dcache.blocked::no_targets              7                       # number of cycles access was blocked
system.cpu0.dcache.avg_blocked_cycles::no_mshrs    46.749750                       # average number of cycles each access was blocked
system.cpu0.dcache.avg_blocked_cycles::no_targets    64.714286                       # average number of cycles each access was blocked
system.cpu0.dcache.fast_writes                      0                       # number of fast writes performed
system.cpu0.dcache.cache_copies                     0                       # number of cache copies performed
system.cpu0.dcache.writebacks::writebacks         2807                       # number of writebacks
system.cpu0.dcache.writebacks::total             2807                       # number of writebacks
system.cpu0.dcache.ReadReq_mshr_hits::switch_cpus0.data         6077                       # number of ReadReq MSHR hits
system.cpu0.dcache.ReadReq_mshr_hits::total         6077                       # number of ReadReq MSHR hits
system.cpu0.dcache.WriteReq_mshr_hits::switch_cpus0.data        12340                       # number of WriteReq MSHR hits
system.cpu0.dcache.WriteReq_mshr_hits::total        12340                       # number of WriteReq MSHR hits
system.cpu0.dcache.LoadLockedReq_mshr_hits::switch_cpus0.data           58                       # number of LoadLockedReq MSHR hits
system.cpu0.dcache.LoadLockedReq_mshr_hits::total           58                       # number of LoadLockedReq MSHR hits
system.cpu0.dcache.demand_mshr_hits::switch_cpus0.data        18417                       # number of demand (read+write) MSHR hits
system.cpu0.dcache.demand_mshr_hits::total        18417                       # number of demand (read+write) MSHR hits
system.cpu0.dcache.overall_mshr_hits::switch_cpus0.data        18417                       # number of overall MSHR hits
system.cpu0.dcache.overall_mshr_hits::total        18417                       # number of overall MSHR hits
system.cpu0.dcache.ReadReq_mshr_misses::switch_cpus0.data         2804                       # number of ReadReq MSHR misses
system.cpu0.dcache.ReadReq_mshr_misses::total         2804                       # number of ReadReq MSHR misses
system.cpu0.dcache.WriteReq_mshr_misses::switch_cpus0.data         2080                       # number of WriteReq MSHR misses
system.cpu0.dcache.WriteReq_mshr_misses::total         2080                       # number of WriteReq MSHR misses
system.cpu0.dcache.LoadLockedReq_mshr_misses::switch_cpus0.data          102                       # number of LoadLockedReq MSHR misses
system.cpu0.dcache.LoadLockedReq_mshr_misses::total          102                       # number of LoadLockedReq MSHR misses
system.cpu0.dcache.StoreCondReq_mshr_misses::switch_cpus0.data           22                       # number of StoreCondReq MSHR misses
system.cpu0.dcache.StoreCondReq_mshr_misses::total           22                       # number of StoreCondReq MSHR misses
system.cpu0.dcache.demand_mshr_misses::switch_cpus0.data         4884                       # number of demand (read+write) MSHR misses
system.cpu0.dcache.demand_mshr_misses::total         4884                       # number of demand (read+write) MSHR misses
system.cpu0.dcache.overall_mshr_misses::switch_cpus0.data         4884                       # number of overall MSHR misses
system.cpu0.dcache.overall_mshr_misses::total         4884                       # number of overall MSHR misses
system.cpu0.dcache.WriteReq_mshr_uncacheable::switch_cpus0.data            3                       # number of WriteReq MSHR uncacheable
system.cpu0.dcache.WriteReq_mshr_uncacheable::total            3                       # number of WriteReq MSHR uncacheable
system.cpu0.dcache.overall_mshr_uncacheable_misses::switch_cpus0.data            3                       # number of overall MSHR uncacheable misses
system.cpu0.dcache.overall_mshr_uncacheable_misses::total            3                       # number of overall MSHR uncacheable misses
system.cpu0.dcache.ReadReq_mshr_miss_latency::switch_cpus0.data    198066281                       # number of ReadReq MSHR miss cycles
system.cpu0.dcache.ReadReq_mshr_miss_latency::total    198066281                       # number of ReadReq MSHR miss cycles
system.cpu0.dcache.WriteReq_mshr_miss_latency::switch_cpus0.data    174928051                       # number of WriteReq MSHR miss cycles
system.cpu0.dcache.WriteReq_mshr_miss_latency::total    174928051                       # number of WriteReq MSHR miss cycles
system.cpu0.dcache.LoadLockedReq_mshr_miss_latency::switch_cpus0.data      6806753                       # number of LoadLockedReq MSHR miss cycles
system.cpu0.dcache.LoadLockedReq_mshr_miss_latency::total      6806753                       # number of LoadLockedReq MSHR miss cycles
system.cpu0.dcache.StoreCondReq_mshr_miss_latency::switch_cpus0.data       174496                       # number of StoreCondReq MSHR miss cycles
system.cpu0.dcache.StoreCondReq_mshr_miss_latency::total       174496                       # number of StoreCondReq MSHR miss cycles
system.cpu0.dcache.demand_mshr_miss_latency::switch_cpus0.data    372994332                       # number of demand (read+write) MSHR miss cycles
system.cpu0.dcache.demand_mshr_miss_latency::total    372994332                       # number of demand (read+write) MSHR miss cycles
system.cpu0.dcache.overall_mshr_miss_latency::switch_cpus0.data    372994332                       # number of overall MSHR miss cycles
system.cpu0.dcache.overall_mshr_miss_latency::total    372994332                       # number of overall MSHR miss cycles
system.cpu0.dcache.WriteReq_mshr_uncacheable_latency::switch_cpus0.data       672000                       # number of WriteReq MSHR uncacheable cycles
system.cpu0.dcache.WriteReq_mshr_uncacheable_latency::total       672000                       # number of WriteReq MSHR uncacheable cycles
system.cpu0.dcache.overall_mshr_uncacheable_latency::switch_cpus0.data       672000                       # number of overall MSHR uncacheable cycles
system.cpu0.dcache.overall_mshr_uncacheable_latency::total       672000                       # number of overall MSHR uncacheable cycles
system.cpu0.dcache.ReadReq_mshr_miss_rate::switch_cpus0.data     0.066430                       # mshr miss rate for ReadReq accesses
system.cpu0.dcache.ReadReq_mshr_miss_rate::total     0.066430                       # mshr miss rate for ReadReq accesses
system.cpu0.dcache.WriteReq_mshr_miss_rate::switch_cpus0.data     0.073982                       # mshr miss rate for WriteReq accesses
system.cpu0.dcache.WriteReq_mshr_miss_rate::total     0.073982                       # mshr miss rate for WriteReq accesses
system.cpu0.dcache.LoadLockedReq_mshr_miss_rate::switch_cpus0.data     0.145714                       # mshr miss rate for LoadLockedReq accesses
system.cpu0.dcache.LoadLockedReq_mshr_miss_rate::total     0.145714                       # mshr miss rate for LoadLockedReq accesses
system.cpu0.dcache.StoreCondReq_mshr_miss_rate::switch_cpus0.data     0.035541                       # mshr miss rate for StoreCondReq accesses
system.cpu0.dcache.StoreCondReq_mshr_miss_rate::total     0.035541                       # mshr miss rate for StoreCondReq accesses
system.cpu0.dcache.demand_mshr_miss_rate::switch_cpus0.data     0.069449                       # mshr miss rate for demand accesses
system.cpu0.dcache.demand_mshr_miss_rate::total     0.069449                       # mshr miss rate for demand accesses
system.cpu0.dcache.overall_mshr_miss_rate::switch_cpus0.data     0.069449                       # mshr miss rate for overall accesses
system.cpu0.dcache.overall_mshr_miss_rate::total     0.069449                       # mshr miss rate for overall accesses
system.cpu0.dcache.ReadReq_avg_mshr_miss_latency::switch_cpus0.data 70637.047432                       # average ReadReq mshr miss latency
system.cpu0.dcache.ReadReq_avg_mshr_miss_latency::total 70637.047432                       # average ReadReq mshr miss latency
system.cpu0.dcache.WriteReq_avg_mshr_miss_latency::switch_cpus0.data 84100.024519                       # average WriteReq mshr miss latency
system.cpu0.dcache.WriteReq_avg_mshr_miss_latency::total 84100.024519                       # average WriteReq mshr miss latency
system.cpu0.dcache.LoadLockedReq_avg_mshr_miss_latency::switch_cpus0.data 66732.872549                       # average LoadLockedReq mshr miss latency
system.cpu0.dcache.LoadLockedReq_avg_mshr_miss_latency::total 66732.872549                       # average LoadLockedReq mshr miss latency
system.cpu0.dcache.StoreCondReq_avg_mshr_miss_latency::switch_cpus0.data  7931.636364                       # average StoreCondReq mshr miss latency
system.cpu0.dcache.StoreCondReq_avg_mshr_miss_latency::total  7931.636364                       # average StoreCondReq mshr miss latency
system.cpu0.dcache.demand_avg_mshr_miss_latency::switch_cpus0.data 76370.665848                       # average overall mshr miss latency
system.cpu0.dcache.demand_avg_mshr_miss_latency::total 76370.665848                       # average overall mshr miss latency
system.cpu0.dcache.overall_avg_mshr_miss_latency::switch_cpus0.data 76370.665848                       # average overall mshr miss latency
system.cpu0.dcache.overall_avg_mshr_miss_latency::total 76370.665848                       # average overall mshr miss latency
system.cpu0.dcache.WriteReq_avg_mshr_uncacheable_latency::switch_cpus0.data       224000                       # average WriteReq mshr uncacheable latency
system.cpu0.dcache.WriteReq_avg_mshr_uncacheable_latency::total       224000                       # average WriteReq mshr uncacheable latency
system.cpu0.dcache.overall_avg_mshr_uncacheable_latency::switch_cpus0.data       224000                       # average overall mshr uncacheable latency
system.cpu0.dcache.overall_avg_mshr_uncacheable_latency::total       224000                       # average overall mshr uncacheable latency
system.cpu0.dcache.no_allocate_misses               0                       # Number of misses that were no-allocate
system.cpu0.icache.tags.replacements             3519                       # number of replacements
system.cpu0.icache.tags.tagsinuse          511.998942                       # Cycle average of tags in use
system.cpu0.icache.tags.total_refs             261261                       # Total number of references to valid blocks.
system.cpu0.icache.tags.sampled_refs             3519                       # Sample count of references to valid blocks.
system.cpu0.icache.tags.avg_refs            74.242967                       # Average number of references to valid blocks.
system.cpu0.icache.tags.warmup_cycle                0                       # Cycle when the warmup percentage was hit.
system.cpu0.icache.tags.occ_blocks::cpu0.inst    19.843122                       # Average occupied blocks per requestor
system.cpu0.icache.tags.occ_blocks::switch_cpus0.inst   492.155820                       # Average occupied blocks per requestor
system.cpu0.icache.tags.occ_percent::cpu0.inst     0.038756                       # Average percentage of cache occupancy
system.cpu0.icache.tags.occ_percent::switch_cpus0.inst     0.961242                       # Average percentage of cache occupancy
system.cpu0.icache.tags.occ_percent::total     0.999998                       # Average percentage of cache occupancy
system.cpu0.icache.tags.occ_task_id_blocks::1024          512                       # Occupied blocks per task id
system.cpu0.icache.tags.age_task_id_blocks_1024::2          469                       # Occupied blocks per task id
system.cpu0.icache.tags.age_task_id_blocks_1024::3           43                       # Occupied blocks per task id
system.cpu0.icache.tags.occ_task_id_percent::1024            1                       # Percentage of cache occupancy per task id
system.cpu0.icache.tags.tag_accesses            87244                       # Number of tag accesses
system.cpu0.icache.tags.data_accesses           87244                       # Number of data accesses
system.cpu0.icache.ReadReq_hits::switch_cpus0.inst        37559                       # number of ReadReq hits
system.cpu0.icache.ReadReq_hits::total          37559                       # number of ReadReq hits
system.cpu0.icache.demand_hits::switch_cpus0.inst        37559                       # number of demand (read+write) hits
system.cpu0.icache.demand_hits::total           37559                       # number of demand (read+write) hits
system.cpu0.icache.overall_hits::switch_cpus0.inst        37559                       # number of overall hits
system.cpu0.icache.overall_hits::total          37559                       # number of overall hits
system.cpu0.icache.ReadReq_misses::switch_cpus0.inst         4303                       # number of ReadReq misses
system.cpu0.icache.ReadReq_misses::total         4303                       # number of ReadReq misses
system.cpu0.icache.demand_misses::switch_cpus0.inst         4303                       # number of demand (read+write) misses
system.cpu0.icache.demand_misses::total          4303                       # number of demand (read+write) misses
system.cpu0.icache.overall_misses::switch_cpus0.inst         4303                       # number of overall misses
system.cpu0.icache.overall_misses::total         4303                       # number of overall misses
system.cpu0.icache.ReadReq_miss_latency::switch_cpus0.inst    308243094                       # number of ReadReq miss cycles
system.cpu0.icache.ReadReq_miss_latency::total    308243094                       # number of ReadReq miss cycles
system.cpu0.icache.demand_miss_latency::switch_cpus0.inst    308243094                       # number of demand (read+write) miss cycles
system.cpu0.icache.demand_miss_latency::total    308243094                       # number of demand (read+write) miss cycles
system.cpu0.icache.overall_miss_latency::switch_cpus0.inst    308243094                       # number of overall miss cycles
system.cpu0.icache.overall_miss_latency::total    308243094                       # number of overall miss cycles
[...]
system.switch_cpus3.int_regfile_writes      940957972                       # number of integer regfile writes
system.switch_cpus3.fp_regfile_reads            34374                       # number of floating regfile reads
system.switch_cpus3.fp_regfile_writes           34167                       # number of floating regfile writes
system.switch_cpus3.misc_regfile_reads        2257079                       # number of misc regfile reads
system.switch_cpus3.misc_regfile_writes        640297                       # number of misc regfile writes
system.tol2bus.trans_dist::ReadReq           25195838                       # Transaction distribution
system.tol2bus.trans_dist::ReadResp          25195840                       # Transaction distribution
system.tol2bus.trans_dist::WriteReq              3832                       # Transaction distribution
system.tol2bus.trans_dist::WriteResp             3832                       # Transaction distribution
system.tol2bus.trans_dist::Writeback          1643835                       # Transaction distribution
system.tol2bus.trans_dist::UpgradeReq            4818                       # Transaction distribution
system.tol2bus.trans_dist::SCUpgradeReq          2526                       # Transaction distribution
system.tol2bus.trans_dist::UpgradeResp           7344                       # Transaction distribution
system.tol2bus.trans_dist::SCUpgradeFailReq           18                       # Transaction distribution
system.tol2bus.trans_dist::UpgradeFailResp           18                       # Transaction distribution
system.tol2bus.trans_dist::ReadExReq           916741                       # Transaction distribution
system.tol2bus.trans_dist::ReadExResp          916741                       # Transaction distribution
system.tol2bus.trans_dist::BadAddressError            1                       # Transaction distribution
system.tol2bus.pkt_count_system.cpu0.icache.mem_side::system.l2.cpu_side     11968172                       # Packet count per connected master and slave (bytes)
system.tol2bus.pkt_count_system.cpu0.dcache.mem_side::system.l2.cpu_side      4573484                       # Packet count per connected master and slave (bytes)
system.tol2bus.pkt_count_system.cpu1.icache.mem_side::system.l2.cpu_side     12504212                       # Packet count per connected master and slave (bytes)
system.tol2bus.pkt_count_system.cpu1.dcache.mem_side::system.l2.cpu_side      5133097                       # Packet count per connected master and slave (bytes)
system.tol2bus.pkt_count_system.cpu2.icache.mem_side::system.l2.cpu_side      6686847                       # Packet count per connected master and slave (bytes)
system.tol2bus.pkt_count_system.cpu2.dcache.mem_side::system.l2.cpu_side      2930794                       # Packet count per connected master and slave (bytes)
system.tol2bus.pkt_count_system.cpu3.icache.mem_side::system.l2.cpu_side      7562225                       # Packet count per connected master and slave (bytes)
system.tol2bus.pkt_count_system.cpu3.dcache.mem_side::system.l2.cpu_side      2520705                       # Packet count per connected master and slave (bytes)
system.tol2bus.pkt_count::total              53879536                       # Packet count per connected master and slave (bytes)
system.tol2bus.pkt_size_system.cpu0.icache.mem_side::system.l2.cpu_side    382981312                       # Cumulative packet size per connected master and slave (bytes)
system.tol2bus.pkt_size_system.cpu0.dcache.mem_side::system.l2.cpu_side    159625795                       # Cumulative packet size per connected master and slave (bytes)
system.tol2bus.pkt_size_system.cpu1.icache.mem_side::system.l2.cpu_side    400134592                       # Cumulative packet size per connected master and slave (bytes)
system.tol2bus.pkt_size_system.cpu1.dcache.mem_side::system.l2.cpu_side    181075864                       # Cumulative packet size per connected master and slave (bytes)
system.tol2bus.pkt_size_system.cpu2.icache.mem_side::system.l2.cpu_side    213978688                       # Cumulative packet size per connected master and slave (bytes)
system.tol2bus.pkt_size_system.cpu2.dcache.mem_side::system.l2.cpu_side    104881281                       # Cumulative packet size per connected master and slave (bytes)
system.tol2bus.pkt_size_system.cpu3.icache.mem_side::system.l2.cpu_side    241991040                       # Cumulative packet size per connected master and slave (bytes)
system.tol2bus.pkt_size_system.cpu3.dcache.mem_side::system.l2.cpu_side     91195352                       # Cumulative packet size per connected master and slave (bytes)
system.tol2bus.pkt_size::total             1775863924                       # Cumulative packet size per connected master and slave (bytes)
system.tol2bus.snoops                           11848                       # Total snoops (count)
system.tol2bus.snoop_fanout::samples         27767608                       # Request fanout histogram
system.tol2bus.snoop_fanout::mean                   7                       # Request fanout histogram
system.tol2bus.snoop_fanout::stdev                  0                       # Request fanout histogram
system.tol2bus.snoop_fanout::underflows             0      0.00%      0.00% # Request fanout histogram
system.tol2bus.snoop_fanout::0                      0      0.00%      0.00% # Request fanout histogram
system.tol2bus.snoop_fanout::1                      0      0.00%      0.00% # Request fanout histogram
system.tol2bus.snoop_fanout::2                      0      0.00%      0.00% # Request fanout histogram
system.tol2bus.snoop_fanout::3                      0      0.00%      0.00% # Request fanout histogram
system.tol2bus.snoop_fanout::4                      0      0.00%      0.00% # Request fanout histogram
system.tol2bus.snoop_fanout::5                      0      0.00%      0.00% # Request fanout histogram
system.tol2bus.snoop_fanout::6                      0      0.00%      0.00% # Request fanout histogram
system.tol2bus.snoop_fanout::7               27767608    100.00%    100.00% # Request fanout histogram
system.tol2bus.snoop_fanout::8                      0      0.00%    100.00% # Request fanout histogram
system.tol2bus.snoop_fanout::overflows              0      0.00%    100.00% # Request fanout histogram
system.tol2bus.snoop_fanout::min_value              7                       # Request fanout histogram
system.tol2bus.snoop_fanout::max_value              7                       # Request fanout histogram
system.tol2bus.snoop_fanout::total           27767608                       # Request fanout histogram
system.tol2bus.reqLayer0.occupancy        15529569471                       # Layer occupancy (ticks)
system.tol2bus.reqLayer0.utilization              1.9                       # Layer utilization (%)
system.tol2bus.respLayer0.occupancy        9442112407                       # Layer occupancy (ticks)
system.tol2bus.respLayer0.utilization             1.1                       # Layer utilization (%)
system.tol2bus.respLayer1.occupancy        3358026829                       # Layer occupancy (ticks)
system.tol2bus.respLayer1.utilization             0.4                       # Layer utilization (%)
system.tol2bus.respLayer2.occupancy        9858780971                       # Layer occupancy (ticks)
system.tol2bus.respLayer2.utilization             1.2                       # Layer utilization (%)
system.tol2bus.respLayer3.occupancy        3714415487                       # Layer occupancy (ticks)
system.tol2bus.respLayer3.utilization             0.4                       # Layer utilization (%)
system.tol2bus.respLayer4.occupancy        5269643696                       # Layer occupancy (ticks)
system.tol2bus.respLayer4.utilization             0.6                       # Layer utilization (%)
system.tol2bus.respLayer5.occupancy        2078938164                       # Layer occupancy (ticks)
system.tol2bus.respLayer5.utilization             0.2                       # Layer utilization (%)
system.tol2bus.respLayer6.occupancy        5959099202                       # Layer occupancy (ticks)
system.tol2bus.respLayer6.utilization             0.7                       # Layer utilization (%)
system.tol2bus.respLayer7.occupancy        1759269862                       # Layer occupancy (ticks)
system.tol2bus.respLayer7.utilization             0.2                       # Layer utilization (%)
system.tsunami.ethernet.descDMAReads                0                       # Number of descriptors the device read w/ DMA
system.tsunami.ethernet.descDMAWrites               0                       # Number of descriptors the device wrote w/ DMA
system.tsunami.ethernet.descDmaReadBytes            0                       # number of descriptor bytes read w/ DMA
system.tsunami.ethernet.descDmaWriteBytes            0                       # number of descriptor bytes write w/ DMA
system.tsunami.ethernet.postedSwi                   0                       # number of software interrupts posted to CPU
system.tsunami.ethernet.coalescedSwi              nan                       # average number of Swi's coalesced into each post
system.tsunami.ethernet.totalSwi                    0                       # total number of Swi written to ISR
system.tsunami.ethernet.postedRxIdle                0                       # number of rxIdle interrupts posted to CPU
system.tsunami.ethernet.coalescedRxIdle           nan                       # average number of RxIdle's coalesced into each post
system.tsunami.ethernet.totalRxIdle                 0                       # total number of RxIdle written to ISR
system.tsunami.ethernet.postedRxOk                  0                       # number of RxOk interrupts posted to CPU
system.tsunami.ethernet.coalescedRxOk             nan                       # average number of RxOk's coalesced into each post
system.tsunami.ethernet.totalRxOk                   0                       # total number of RxOk written to ISR
system.tsunami.ethernet.postedRxDesc                0                       # number of RxDesc interrupts posted to CPU
system.tsunami.ethernet.coalescedRxDesc           nan                       # average number of RxDesc's coalesced into each post
system.tsunami.ethernet.totalRxDesc                 0                       # total number of RxDesc written to ISR
system.tsunami.ethernet.postedTxOk                  0                       # number of TxOk interrupts posted to CPU
system.tsunami.ethernet.coalescedTxOk             nan                       # average number of TxOk's coalesced into each post
system.tsunami.ethernet.totalTxOk                   0                       # total number of TxOk written to ISR
system.tsunami.ethernet.postedTxIdle                0                       # number of TxIdle interrupts posted to CPU
system.tsunami.ethernet.coalescedTxIdle           nan                       # average number of TxIdle's coalesced into each post
system.tsunami.ethernet.totalTxIdle                 0                       # total number of TxIdle written to ISR
system.tsunami.ethernet.postedTxDesc                0                       # number of TxDesc interrupts posted to CPU
system.tsunami.ethernet.coalescedTxDesc           nan                       # average number of TxDesc's coalesced into each post
system.tsunami.ethernet.totalTxDesc                 0                       # total number of TxDesc written to ISR
system.tsunami.ethernet.postedRxOrn                 0                       # number of RxOrn posted to CPU
system.tsunami.ethernet.coalescedRxOrn            nan                       # average number of RxOrn's coalesced into each post
system.tsunami.ethernet.totalRxOrn                  0                       # total number of RxOrn written to ISR
system.tsunami.ethernet.coalescedTotal            nan                       # average number of interrupts coalesced into each post
system.tsunami.ethernet.postedInterrupts            0                       # number of posts to CPU
system.tsunami.ethernet.droppedPackets              0                       # number of packets dropped
system.switch_cpus0.kern.inst.arm                   0                       # number of arm instructions executed
system.switch_cpus0.kern.inst.quiesce               0                       # number of quiesce instructions executed
system.switch_cpus0.kern.inst.hwrei                 0                       # number of hwrei instructions executed
system.switch_cpus0.kern.mode_switch::kernel            0                       # number of protection mode switches
system.switch_cpus0.kern.mode_switch::user            0                       # number of protection mode switches
system.switch_cpus0.kern.mode_switch::idle            0                       # number of protection mode switches
system.switch_cpus0.kern.mode_good::kernel            0                      
system.switch_cpus0.kern.mode_good::user            0                      
system.switch_cpus0.kern.mode_good::idle            0                      
system.switch_cpus0.kern.mode_switch_good::kernel          nan                       # fraction of useful protection mode switches
system.switch_cpus0.kern.mode_switch_good::user          nan                       # fraction of useful protection mode switches
system.switch_cpus0.kern.mode_switch_good::idle          nan                       # fraction of useful protection mode switches
system.switch_cpus0.kern.mode_switch_good::total          nan                       # fraction of useful protection mode switches
system.switch_cpus0.kern.mode_ticks::kernel            0                       # number of ticks spent at the given mode
system.switch_cpus0.kern.mode_ticks::user            0                       # number of ticks spent at the given mode
system.switch_cpus0.kern.mode_ticks::idle            0                       # number of ticks spent at the given mode
system.switch_cpus0.kern.swap_context               0                       # number of times the context was actually changed
system.switch_cpus1.kern.inst.arm                   0                       # number of arm instructions executed
system.switch_cpus1.kern.inst.quiesce               0                       # number of quiesce instructions executed
system.switch_cpus1.kern.inst.hwrei                 0                       # number of hwrei instructions executed
system.switch_cpus1.kern.mode_switch::kernel            0                       # number of protection mode switches
system.switch_cpus1.kern.mode_switch::user            0                       # number of protection mode switches
system.switch_cpus1.kern.mode_switch::idle            0                       # number of protection mode switches
system.switch_cpus1.kern.mode_good::kernel            0                      
system.switch_cpus1.kern.mode_good::user            0                      
system.switch_cpus1.kern.mode_good::idle            0                      
system.switch_cpus1.kern.mode_switch_good::kernel          nan                       # fraction of useful protection mode switches
system.switch_cpus1.kern.mode_switch_good::user          nan                       # fraction of useful protection mode switches
system.switch_cpus1.kern.mode_switch_good::idle          nan                       # fraction of useful protection mode switches
system.switch_cpus1.kern.mode_switch_good::total          nan                       # fraction of useful protection mode switches
system.switch_cpus1.kern.mode_ticks::kernel            0                       # number of ticks spent at the given mode
system.switch_cpus1.kern.mode_ticks::user            0                       # number of ticks spent at the given mode
system.switch_cpus1.kern.mode_ticks::idle            0                       # number of ticks spent at the given mode
system.switch_cpus1.kern.swap_context               0                       # number of times the context was actually changed
system.switch_cpus2.kern.inst.arm                   0                       # number of arm instructions executed
system.switch_cpus2.kern.inst.quiesce               0                       # number of quiesce instructions executed
system.switch_cpus2.kern.inst.hwrei                 0                       # number of hwrei instructions executed
system.switch_cpus2.kern.mode_switch::kernel            0                       # number of protection mode switches
system.switch_cpus2.kern.mode_switch::user            0                       # number of protection mode switches
system.switch_cpus2.kern.mode_switch::idle            0                       # number of protection mode switches
system.switch_cpus2.kern.mode_good::kernel            0                      
system.switch_cpus2.kern.mode_good::user            0                      
system.switch_cpus2.kern.mode_good::idle            0                      
system.switch_cpus2.kern.mode_switch_good::kernel          nan                       # fraction of useful protection mode switches
system.switch_cpus2.kern.mode_switch_good::user          nan                       # fraction of useful protection mode switches
system.switch_cpus2.kern.mode_switch_good::idle          nan                       # fraction of useful protection mode switches
system.switch_cpus2.kern.mode_switch_good::total          nan                       # fraction of useful protection mode switches
system.switch_cpus2.kern.mode_ticks::kernel            0                       # number of ticks spent at the given mode
system.switch_cpus2.kern.mode_ticks::user            0                       # number of ticks spent at the given mode
system.switch_cpus2.kern.mode_ticks::idle            0                       # number of ticks spent at the given mode
system.switch_cpus2.kern.swap_context               0                       # number of times the context was actually changed
system.switch_cpus3.kern.inst.arm                   0                       # number of arm instructions executed
system.switch_cpus3.kern.inst.quiesce               0                       # number of quiesce instructions executed
system.switch_cpus3.kern.inst.hwrei                 0                       # number of hwrei instructions executed
system.switch_cpus3.kern.mode_switch::kernel            0                       # number of protection mode switches
system.switch_cpus3.kern.mode_switch::user            0                       # number of protection mode switches
system.switch_cpus3.kern.mode_switch::idle            0                       # number of protection mode switches
system.switch_cpus3.kern.mode_good::kernel            0                      
system.switch_cpus3.kern.mode_good::user            0                      
system.switch_cpus3.kern.mode_good::idle            0                      
system.switch_cpus3.kern.mode_switch_good::kernel          nan                       # fraction of useful protection mode switches
system.switch_cpus3.kern.mode_switch_good::user          nan                       # fraction of useful protection mode switches
system.switch_cpus3.kern.mode_switch_good::idle          nan                       # fraction of useful protection mode switches
system.switch_cpus3.kern.mode_switch_good::total          nan                       # fraction of useful protection mode switches
system.switch_cpus3.kern.mode_ticks::kernel            0                       # number of ticks spent at the given mode
system.switch_cpus3.kern.mode_ticks::user            0                       # number of ticks spent at the given mode
system.switch_cpus3.kern.mode_ticks::idle            0                       # number of ticks spent at the given mode
system.switch_cpus3.kern.swap_context               0                       # number of times the context was actually changed

---------- End Simulation Statistics   ----------
