
---------- Begin Simulation Statistics ----------
sim_seconds                                  0.000799                       # Number of seconds simulated
sim_ticks                                   799168000                       # Number of ticks simulated
final_tick                               2255239680000                       # Number of ticks from beginning of simulation (restored from checkpoints and never reset)
sim_freq                                 1000000000000                       # Frequency of simulated ticks
host_inst_rate                               36802015                       # Simulator instruction rate (inst/s)
host_op_rate                                 36801913                       # Simulator op (including micro ops) rate (op/s)
host_tick_rate                              300157301                       # Simulator tick rate (ticks/s)
host_mem_usage                                 728848                       # Number of bytes of host memory used
host_seconds                                     2.66                       # Real time elapsed on the host
sim_insts                                    97984743                       # Number of instructions simulated
sim_ops                                      97984743                       # Number of ops (including micro ops) simulated
system.voltage_domain.voltage                       1                       # Voltage in Volts
system.clk_domain.clock                          1000                       # Clock period in ticks
system.mem_ctrls.bytes_read::switch_cpus.inst       314048                       # Number of bytes read from this memory
system.mem_ctrls.bytes_read::switch_cpus.data       176384                       # Number of bytes read from this memory
system.mem_ctrls.bytes_read::total             490432                       # Number of bytes read from this memory
system.mem_ctrls.bytes_inst_read::switch_cpus.inst       314048                       # Number of instructions bytes read from this memory
system.mem_ctrls.bytes_inst_read::total        314048                       # Number of instructions bytes read from this memory
system.mem_ctrls.bytes_written::writebacks        62592                       # Number of bytes written to this memory
system.mem_ctrls.bytes_written::total           62592                       # Number of bytes written to this memory
system.mem_ctrls.num_reads::switch_cpus.inst         4907                       # Number of read requests responded to by this memory
system.mem_ctrls.num_reads::switch_cpus.data         2756                       # Number of read requests responded to by this memory
system.mem_ctrls.num_reads::total                7663                       # Number of read requests responded to by this memory
system.mem_ctrls.num_writes::writebacks           978                       # Number of write requests responded to by this memory
system.mem_ctrls.num_writes::total                978                       # Number of write requests responded to by this memory
system.mem_ctrls.bw_read::switch_cpus.inst    392968687                       # Total read bandwidth from this memory (bytes/s)
system.mem_ctrls.bw_read::switch_cpus.data    220709538                       # Total read bandwidth from this memory (bytes/s)
system.mem_ctrls.bw_read::total             613678225                       # Total read bandwidth from this memory (bytes/s)
system.mem_ctrls.bw_inst_read::switch_cpus.inst    392968687                       # Instruction read bandwidth from this memory (bytes/s)
system.mem_ctrls.bw_inst_read::total        392968687                       # Instruction read bandwidth from this memory (bytes/s)
system.mem_ctrls.bw_write::writebacks        78321454                       # Write bandwidth from this memory (bytes/s)
system.mem_ctrls.bw_write::total             78321454                       # Write bandwidth from this memory (bytes/s)
system.mem_ctrls.bw_total::writebacks        78321454                       # Total bandwidth to/from this memory (bytes/s)
system.mem_ctrls.bw_total::switch_cpus.inst    392968687                       # Total bandwidth to/from this memory (bytes/s)
system.mem_ctrls.bw_total::switch_cpus.data    220709538                       # Total bandwidth to/from this memory (bytes/s)
system.mem_ctrls.bw_total::total            691999680                       # Total bandwidth to/from this memory (bytes/s)
system.mem_ctrls.readReqs                        7664                       # Number of read requests accepted
system.mem_ctrls.writeReqs                        978                       # Number of write requests accepted
system.mem_ctrls.readBursts                      7664                       # Number of DRAM read bursts, including those serviced by the write queue
system.mem_ctrls.writeBursts                      978                       # Number of DRAM write bursts, including those merged in the write queue
system.mem_ctrls.bytesReadDRAM                 487168                       # Total number of bytes read from DRAM
system.mem_ctrls.bytesReadWrQ                    3328                       # Total number of bytes read from write queue
system.mem_ctrls.bytesWritten                   61248                       # Total number of bytes written to DRAM
system.mem_ctrls.bytesReadSys                  490496                       # Total read bytes from the system interface side
system.mem_ctrls.bytesWrittenSys                62592                       # Total written bytes from the system interface side
system.mem_ctrls.servicedByWrQ                     52                       # Number of DRAM read bursts serviced by the write queue
system.mem_ctrls.mergedWrBursts                     1                       # Number of DRAM write bursts merged with an existing one
system.mem_ctrls.neitherReadNorWriteReqs            6                       # Number of requests that are neither read nor write
system.mem_ctrls.perBankRdBursts::0               856                       # Per bank write bursts
system.mem_ctrls.perBankRdBursts::1               363                       # Per bank write bursts
system.mem_ctrls.perBankRdBursts::2               383                       # Per bank write bursts
system.mem_ctrls.perBankRdBursts::3               271                       # Per bank write bursts
system.mem_ctrls.perBankRdBursts::4               333                       # Per bank write bursts
system.mem_ctrls.perBankRdBursts::5               368                       # Per bank write bursts
system.mem_ctrls.perBankRdBursts::6               357                       # Per bank write bursts
system.mem_ctrls.perBankRdBursts::7               454                       # Per bank write bursts
system.mem_ctrls.perBankRdBursts::8               664                       # Per bank write bursts
system.mem_ctrls.perBankRdBursts::9               430                       # Per bank write bursts
system.mem_ctrls.perBankRdBursts::10              545                       # Per bank write bursts
system.mem_ctrls.perBankRdBursts::11              646                       # Per bank write bursts
system.mem_ctrls.perBankRdBursts::12              607                       # Per bank write bursts
system.mem_ctrls.perBankRdBursts::13              744                       # Per bank write bursts
system.mem_ctrls.perBankRdBursts::14              268                       # Per bank write bursts
system.mem_ctrls.perBankRdBursts::15              323                       # Per bank write bursts
system.mem_ctrls.perBankWrBursts::0               148                       # Per bank write bursts
system.mem_ctrls.perBankWrBursts::1                44                       # Per bank write bursts
system.mem_ctrls.perBankWrBursts::2                31                       # Per bank write bursts
system.mem_ctrls.perBankWrBursts::3                52                       # Per bank write bursts
system.mem_ctrls.perBankWrBursts::4                84                       # Per bank write bursts
system.mem_ctrls.perBankWrBursts::5                80                       # Per bank write bursts
system.mem_ctrls.perBankWrBursts::6                99                       # Per bank write bursts
system.mem_ctrls.perBankWrBursts::7                35                       # Per bank write bursts
system.mem_ctrls.perBankWrBursts::8                50                       # Per bank write bursts
system.mem_ctrls.perBankWrBursts::9                27                       # Per bank write bursts
system.mem_ctrls.perBankWrBursts::10               22                       # Per bank write bursts
system.mem_ctrls.perBankWrBursts::11               79                       # Per bank write bursts
system.mem_ctrls.perBankWrBursts::12               45                       # Per bank write bursts
system.mem_ctrls.perBankWrBursts::13               78                       # Per bank write bursts
system.mem_ctrls.perBankWrBursts::14               47                       # Per bank write bursts
system.mem_ctrls.perBankWrBursts::15               36                       # Per bank write bursts
system.mem_ctrls.numRdRetry                         0                       # Number of times read queue was full causing retry
system.mem_ctrls.numWrRetry                         0                       # Number of times write queue was full causing retry
system.mem_ctrls.totGap                     799123500                       # Total gap between requests
system.mem_ctrls.readPktSize::0                     0                       # Read request sizes (log2)
system.mem_ctrls.readPktSize::1                     0                       # Read request sizes (log2)
system.mem_ctrls.readPktSize::2                     0                       # Read request sizes (log2)
system.mem_ctrls.readPktSize::3                     0                       # Read request sizes (log2)
system.mem_ctrls.readPktSize::4                     0                       # Read request sizes (log2)
system.mem_ctrls.readPktSize::5                     0                       # Read request sizes (log2)
system.mem_ctrls.readPktSize::6                  7664                       # Read request sizes (log2)
system.mem_ctrls.writePktSize::0                    0                       # Write request sizes (log2)
system.mem_ctrls.writePktSize::1                    0                       # Write request sizes (log2)
system.mem_ctrls.writePktSize::2                    0                       # Write request sizes (log2)
system.mem_ctrls.writePktSize::3                    0                       # Write request sizes (log2)
system.mem_ctrls.writePktSize::4                    0                       # Write request sizes (log2)
system.mem_ctrls.writePktSize::5                    0                       # Write request sizes (log2)
system.mem_ctrls.writePktSize::6                  978                       # Write request sizes (log2)
system.mem_ctrls.rdQLenPdf::0                    5423                       # What read queue length does an incoming req see
system.mem_ctrls.rdQLenPdf::1                    1693                       # What read queue length does an incoming req see
system.mem_ctrls.rdQLenPdf::2                     394                       # What read queue length does an incoming req see
system.mem_ctrls.rdQLenPdf::3                      94                       # What read queue length does an incoming req see
system.mem_ctrls.rdQLenPdf::4                       6                       # What read queue length does an incoming req see
system.mem_ctrls.rdQLenPdf::5                       2                       # What read queue length does an incoming req see
system.mem_ctrls.rdQLenPdf::6                       0                       # What read queue length does an incoming req see
system.mem_ctrls.rdQLenPdf::7                       0                       # What read queue length does an incoming req see
system.mem_ctrls.rdQLenPdf::8                       0                       # What read queue length does an incoming req see
system.mem_ctrls.rdQLenPdf::9                       0                       # What read queue length does an incoming req see
system.mem_ctrls.rdQLenPdf::10                      0                       # What read queue length does an incoming req see
system.mem_ctrls.rdQLenPdf::11                      0                       # What read queue length does an incoming req see
system.mem_ctrls.rdQLenPdf::12                      0                       # What read queue length does an incoming req see
system.mem_ctrls.rdQLenPdf::13                      0                       # What read queue length does an incoming req see
system.mem_ctrls.rdQLenPdf::14                      0                       # What read queue length does an incoming req see
system.mem_ctrls.rdQLenPdf::15                      0                       # What read queue length does an incoming req see
system.mem_ctrls.rdQLenPdf::16                      0                       # What read queue length does an incoming req see
system.mem_ctrls.rdQLenPdf::17                      0                       # What read queue length does an incoming req see
system.mem_ctrls.rdQLenPdf::18                      0                       # What read queue length does an incoming req see
system.mem_ctrls.rdQLenPdf::19                      0                       # What read queue length does an incoming req see
system.mem_ctrls.rdQLenPdf::20                      0                       # What read queue length does an incoming req see
system.mem_ctrls.rdQLenPdf::21                      0                       # What read queue length does an incoming req see
system.mem_ctrls.rdQLenPdf::22                      0                       # What read queue length does an incoming req see
system.mem_ctrls.rdQLenPdf::23                      0                       # What read queue length does an incoming req see
system.mem_ctrls.rdQLenPdf::24                      0                       # What read queue length does an incoming req see
system.mem_ctrls.rdQLenPdf::25                      0                       # What read queue length does an incoming req see
system.mem_ctrls.rdQLenPdf::26                      0                       # What read queue length does an incoming req see
system.mem_ctrls.rdQLenPdf::27                      0                       # What read queue length does an incoming req see
system.mem_ctrls.rdQLenPdf::28                      0                       # What read queue length does an incoming req see
system.mem_ctrls.rdQLenPdf::29                      0                       # What read queue length does an incoming req see
system.mem_ctrls.rdQLenPdf::30                      0                       # What read queue length does an incoming req see
system.mem_ctrls.rdQLenPdf::31                      0                       # What read queue length does an incoming req see
system.mem_ctrls.wrQLenPdf::0                       1                       # What write queue length does an incoming req see
system.mem_ctrls.wrQLenPdf::1                       1                       # What write queue length does an incoming req see
system.mem_ctrls.wrQLenPdf::2                       1                       # What write queue length does an incoming req see
system.mem_ctrls.wrQLenPdf::3                       1                       # What write queue length does an incoming req see
system.mem_ctrls.wrQLenPdf::4                       1                       # What write queue length does an incoming req see
system.mem_ctrls.wrQLenPdf::5                       1                       # What write queue length does an incoming req see
system.mem_ctrls.wrQLenPdf::6                       1                       # What write queue length does an incoming req see
system.mem_ctrls.wrQLenPdf::7                       1                       # What write queue length does an incoming req see
system.mem_ctrls.wrQLenPdf::8                       1                       # What write queue length does an incoming req see
system.mem_ctrls.wrQLenPdf::9                       1                       # What write queue length does an incoming req see
system.mem_ctrls.wrQLenPdf::10                      1                       # What write queue length does an incoming req see
system.mem_ctrls.wrQLenPdf::11                      1                       # What write queue length does an incoming req see
system.mem_ctrls.wrQLenPdf::12                      1                       # What write queue length does an incoming req see
system.mem_ctrls.wrQLenPdf::13                      1                       # What write queue length does an incoming req see
system.mem_ctrls.wrQLenPdf::14                      1                       # What write queue length does an incoming req see
system.mem_ctrls.wrQLenPdf::15                     20                       # What write queue length does an incoming req see
system.mem_ctrls.wrQLenPdf::16                     23                       # What write queue length does an incoming req see
system.mem_ctrls.wrQLenPdf::17                     54                       # What write queue length does an incoming req see
system.mem_ctrls.wrQLenPdf::18                     57                       # What write queue length does an incoming req see
system.mem_ctrls.wrQLenPdf::19                     58                       # What write queue length does an incoming req see
system.mem_ctrls.wrQLenPdf::20                     58                       # What write queue length does an incoming req see
system.mem_ctrls.wrQLenPdf::21                     57                       # What write queue length does an incoming req see
system.mem_ctrls.wrQLenPdf::22                     58                       # What write queue length does an incoming req see
system.mem_ctrls.wrQLenPdf::23                     59                       # What write queue length does an incoming req see
system.mem_ctrls.wrQLenPdf::24                     58                       # What write queue length does an incoming req see
system.mem_ctrls.wrQLenPdf::25                     58                       # What write queue length does an incoming req see
system.mem_ctrls.wrQLenPdf::26                     57                       # What write queue length does an incoming req see
system.mem_ctrls.wrQLenPdf::27                     57                       # What write queue length does an incoming req see
system.mem_ctrls.wrQLenPdf::28                     59                       # What write queue length does an incoming req see
system.mem_ctrls.wrQLenPdf::29                     57                       # What write queue length does an incoming req see
system.mem_ctrls.wrQLenPdf::30                     57                       # What write queue length does an incoming req see
system.mem_ctrls.wrQLenPdf::31                     58                       # What write queue length does an incoming req see
system.mem_ctrls.wrQLenPdf::32                     57                       # What write queue length does an incoming req see
system.mem_ctrls.wrQLenPdf::33                      0                       # What write queue length does an incoming req see
system.mem_ctrls.wrQLenPdf::34                      0                       # What write queue length does an incoming req see
system.mem_ctrls.wrQLenPdf::35                      0                       # What write queue length does an incoming req see
system.mem_ctrls.wrQLenPdf::36                      0                       # What write queue length does an incoming req see
system.mem_ctrls.wrQLenPdf::37                      0                       # What write queue length does an incoming req see
system.mem_ctrls.wrQLenPdf::38                      0                       # What write queue length does an incoming req see
system.mem_ctrls.wrQLenPdf::39                      0                       # What write queue length does an incoming req see
system.mem_ctrls.wrQLenPdf::40                      0                       # What write queue length does an incoming req see
system.mem_ctrls.wrQLenPdf::41                      0                       # What write queue length does an incoming req see
system.mem_ctrls.wrQLenPdf::42                      0                       # What write queue length does an incoming req see
system.mem_ctrls.wrQLenPdf::43                      0                       # What write queue length does an incoming req see
system.mem_ctrls.wrQLenPdf::44                      0                       # What write queue length does an incoming req see
system.mem_ctrls.wrQLenPdf::45                      0                       # What write queue length does an incoming req see
system.mem_ctrls.wrQLenPdf::46                      0                       # What write queue length does an incoming req see
system.mem_ctrls.wrQLenPdf::47                      0                       # What write queue length does an incoming req see
system.mem_ctrls.wrQLenPdf::48                      0                       # What write queue length does an incoming req see
system.mem_ctrls.wrQLenPdf::49                      0                       # What write queue length does an incoming req see
system.mem_ctrls.wrQLenPdf::50                      0                       # What write queue length does an incoming req see
system.mem_ctrls.wrQLenPdf::51                      0                       # What write queue length does an incoming req see
system.mem_ctrls.wrQLenPdf::52                      0                       # What write queue length does an incoming req see
system.mem_ctrls.wrQLenPdf::53                      0                       # What write queue length does an incoming req see
system.mem_ctrls.wrQLenPdf::54                      0                       # What write queue length does an incoming req see
system.mem_ctrls.wrQLenPdf::55                      0                       # What write queue length does an incoming req see
system.mem_ctrls.wrQLenPdf::56                      0                       # What write queue length does an incoming req see
system.mem_ctrls.wrQLenPdf::57                      0                       # What write queue length does an incoming req see
system.mem_ctrls.wrQLenPdf::58                      0                       # What write queue length does an incoming req see
system.mem_ctrls.wrQLenPdf::59                      0                       # What write queue length does an incoming req see
system.mem_ctrls.wrQLenPdf::60                      0                       # What write queue length does an incoming req see
system.mem_ctrls.wrQLenPdf::61                      0                       # What write queue length does an incoming req see
system.mem_ctrls.wrQLenPdf::62                      0                       # What write queue length does an incoming req see
system.mem_ctrls.wrQLenPdf::63                      0                       # What write queue length does an incoming req see
system.mem_ctrls.bytesPerActivate::samples         2899                       # Bytes accessed per row activation
system.mem_ctrls.bytesPerActivate::mean    188.423594                       # Bytes accessed per row activation
system.mem_ctrls.bytesPerActivate::gmean   127.117853                       # Bytes accessed per row activation
system.mem_ctrls.bytesPerActivate::stdev   213.508656                       # Bytes accessed per row activation
system.mem_ctrls.bytesPerActivate::0-127         1379     47.57%     47.57% # Bytes accessed per row activation
system.mem_ctrls.bytesPerActivate::128-255          856     29.53%     77.10% # Bytes accessed per row activation
system.mem_ctrls.bytesPerActivate::256-383          285      9.83%     86.93% # Bytes accessed per row activation
system.mem_ctrls.bytesPerActivate::384-511          126      4.35%     91.27% # Bytes accessed per row activation
system.mem_ctrls.bytesPerActivate::512-639           81      2.79%     94.07% # Bytes accessed per row activation
system.mem_ctrls.bytesPerActivate::640-767           37      1.28%     95.34% # Bytes accessed per row activation
system.mem_ctrls.bytesPerActivate::768-895           34      1.17%     96.52% # Bytes accessed per row activation
system.mem_ctrls.bytesPerActivate::896-1023           18      0.62%     97.14% # Bytes accessed per row activation
system.mem_ctrls.bytesPerActivate::1024-1151           83      2.86%    100.00% # Bytes accessed per row activation
system.mem_ctrls.bytesPerActivate::total         2899                       # Bytes accessed per row activation
system.mem_ctrls.rdPerTurnAround::samples           57                       # Reads before turning the bus around for writes
system.mem_ctrls.rdPerTurnAround::mean     132.719298                       # Reads before turning the bus around for writes
system.mem_ctrls.rdPerTurnAround::gmean    119.408068                       # Reads before turning the bus around for writes
system.mem_ctrls.rdPerTurnAround::stdev     62.560472                       # Reads before turning the bus around for writes
system.mem_ctrls.rdPerTurnAround::16-31             1      1.75%      1.75% # Reads before turning the bus around for writes
system.mem_ctrls.rdPerTurnAround::32-47             1      1.75%      3.51% # Reads before turning the bus around for writes
system.mem_ctrls.rdPerTurnAround::48-63             4      7.02%     10.53% # Reads before turning the bus around for writes
system.mem_ctrls.rdPerTurnAround::64-79             6     10.53%     21.05% # Reads before turning the bus around for writes
system.mem_ctrls.rdPerTurnAround::80-95             3      5.26%     26.32% # Reads before turning the bus around for writes
system.mem_ctrls.rdPerTurnAround::96-111            4      7.02%     33.33% # Reads before turning the bus around for writes
system.mem_ctrls.rdPerTurnAround::112-127           12     21.05%     54.39% # Reads before turning the bus around for writes
system.mem_ctrls.rdPerTurnAround::128-143           10     17.54%     71.93% # Reads before turning the bus around for writes
system.mem_ctrls.rdPerTurnAround::144-159            4      7.02%     78.95% # Reads before turning the bus around for writes
system.mem_ctrls.rdPerTurnAround::160-175            3      5.26%     84.21% # Reads before turning the bus around for writes
system.mem_ctrls.rdPerTurnAround::176-191            1      1.75%     85.96% # Reads before turning the bus around for writes
system.mem_ctrls.rdPerTurnAround::192-207            2      3.51%     89.47% # Reads before turning the bus around for writes
system.mem_ctrls.rdPerTurnAround::208-223            1      1.75%     91.23% # Reads before turning the bus around for writes
system.mem_ctrls.rdPerTurnAround::240-255            2      3.51%     94.74% # Reads before turning the bus around for writes
system.mem_ctrls.rdPerTurnAround::272-287            1      1.75%     96.49% # Reads before turning the bus around for writes
system.mem_ctrls.rdPerTurnAround::304-319            1      1.75%     98.25% # Reads before turning the bus around for writes
system.mem_ctrls.rdPerTurnAround::336-351            1      1.75%    100.00% # Reads before turning the bus around for writes
system.mem_ctrls.rdPerTurnAround::total            57                       # Reads before turning the bus around for writes
system.mem_ctrls.wrPerTurnAround::samples           57                       # Writes before turning the bus around for reads
system.mem_ctrls.wrPerTurnAround::mean      16.789474                       # Writes before turning the bus around for reads
system.mem_ctrls.wrPerTurnAround::gmean     16.759130                       # Writes before turning the bus around for reads
system.mem_ctrls.wrPerTurnAround::stdev      1.030548                       # Writes before turning the bus around for reads
system.mem_ctrls.wrPerTurnAround::16               35     61.40%     61.40% # Writes before turning the bus around for reads
system.mem_ctrls.wrPerTurnAround::17                1      1.75%     63.16% # Writes before turning the bus around for reads
system.mem_ctrls.wrPerTurnAround::18               19     33.33%     96.49% # Writes before turning the bus around for reads
system.mem_ctrls.wrPerTurnAround::19                2      3.51%    100.00% # Writes before turning the bus around for reads
system.mem_ctrls.wrPerTurnAround::total            57                       # Writes before turning the bus around for reads
system.mem_ctrls.totQLat                     96605500                       # Total ticks spent queuing
system.mem_ctrls.totMemAccLat               239330500                       # Total ticks spent from burst creation until serviced by the DRAM
system.mem_ctrls.totBusLat                   38060000                       # Total ticks spent in databus transfers
system.mem_ctrls.avgQLat                     12691.21                       # Average queueing delay per DRAM burst
system.mem_ctrls.avgBusLat                    5000.00                       # Average bus latency per DRAM burst
system.mem_ctrls.avgMemAccLat                31441.21                       # Average memory access latency per DRAM burst
system.mem_ctrls.avgRdBW                       609.59                       # Average DRAM read bandwidth in MiByte/s
system.mem_ctrls.avgWrBW                        76.64                       # Average achieved write bandwidth in MiByte/s
system.mem_ctrls.avgRdBWSys                    613.76                       # Average system read bandwidth in MiByte/s
system.mem_ctrls.avgWrBWSys                     78.32                       # Average system write bandwidth in MiByte/s
system.mem_ctrls.peakBW                      12800.00                       # Theoretical peak bandwidth in MiByte/s
system.mem_ctrls.busUtil                         5.36                       # Data bus utilization in percentage
system.mem_ctrls.busUtilRead                     4.76                       # Data bus utilization in percentage for reads
system.mem_ctrls.busUtilWrite                    0.60                       # Data bus utilization in percentage for writes
system.mem_ctrls.avgRdQLen                       1.28                       # Average read queue length when enqueuing
system.mem_ctrls.avgWrQLen                      24.49                       # Average write queue length when enqueuing
system.mem_ctrls.readRowHits                     5191                       # Number of row buffer hits during reads
system.mem_ctrls.writeRowHits                     470                       # Number of row buffer hits during writes
system.mem_ctrls.readRowHitRate                 68.19                       # Row buffer hit rate for reads
system.mem_ctrls.writeRowHitRate                48.11                       # Row buffer hit rate for writes
system.mem_ctrls.avgGap                      92469.74                       # Average gap between requests
system.mem_ctrls.pageHitRate                    65.91                       # Row buffer hit rate, read and write combined
system.mem_ctrls_0.actEnergy                  9699480                       # Energy for activate commands per rank (pJ)
system.mem_ctrls_0.preEnergy                  5292375                       # Energy for precharge commands per rank (pJ)
system.mem_ctrls_0.readEnergy                26309400                       # Energy for read commands per rank (pJ)
system.mem_ctrls_0.writeEnergy                3713040                       # Energy for write commands per rank (pJ)
system.mem_ctrls_0.refreshEnergy             51873120                       # Energy for refresh commands per rank (pJ)
system.mem_ctrls_0.actBackEnergy            496306125                       # Energy for active background per rank (pJ)
system.mem_ctrls_0.preBackEnergy             41310000                       # Energy for precharge background per rank (pJ)
system.mem_ctrls_0.totalEnergy              634503540                       # Total energy per rank (pJ)
system.mem_ctrls_0.averagePower            798.676483                       # Core power per rank (mW)
system.mem_ctrls_0.memoryStateTime::IDLE     67529500                       # Time in different power states
system.mem_ctrls_0.memoryStateTime::REF      26520000                       # Time in different power states
system.mem_ctrls_0.memoryStateTime::PRE_PDN            0                       # Time in different power states
system.mem_ctrls_0.memoryStateTime::ACT     701975500                       # Time in different power states
system.mem_ctrls_0.memoryStateTime::ACT_PDN            0                       # Time in different power states
system.mem_ctrls_1.actEnergy                 12194280                       # Energy for activate commands per rank (pJ)
system.mem_ctrls_1.preEnergy                  6653625                       # Energy for precharge commands per rank (pJ)
system.mem_ctrls_1.readEnergy                32775600                       # Energy for read commands per rank (pJ)
system.mem_ctrls_1.writeEnergy                2488320                       # Energy for write commands per rank (pJ)
system.mem_ctrls_1.refreshEnergy             51873120                       # Energy for refresh commands per rank (pJ)
system.mem_ctrls_1.actBackEnergy            505789785                       # Energy for active background per rank (pJ)
system.mem_ctrls_1.preBackEnergy             32999250                       # Energy for precharge background per rank (pJ)
system.mem_ctrls_1.totalEnergy              644773980                       # Total energy per rank (pJ)
system.mem_ctrls_1.averagePower            811.590274                       # Core power per rank (mW)
system.mem_ctrls_1.memoryStateTime::IDLE     52006750                       # Time in different power states
system.mem_ctrls_1.memoryStateTime::REF      26520000                       # Time in different power states
system.mem_ctrls_1.memoryStateTime::PRE_PDN            0                       # Time in different power states
system.mem_ctrls_1.memoryStateTime::ACT     715944500                       # Time in different power states
system.mem_ctrls_1.memoryStateTime::ACT_PDN            0                       # Time in different power states
system.cpu_voltage_domain.voltage                   1                       # Voltage in Volts
system.cpu_clk_domain.clock                       500                       # Clock period in ticks
system.cpu.dtb.fetch_hits                           0                       # ITB hits
system.cpu.dtb.fetch_misses                         0                       # ITB misses
system.cpu.dtb.fetch_acv                            0                       # ITB acv
system.cpu.dtb.fetch_accesses                       0                       # ITB accesses
system.cpu.dtb.read_hits                            0                       # DTB read hits
system.cpu.dtb.read_misses                          0                       # DTB read misses
system.cpu.dtb.read_acv                             0                       # DTB read access violations
system.cpu.dtb.read_accesses                        0                       # DTB read accesses
system.cpu.dtb.write_hits                           0                       # DTB write hits
system.cpu.dtb.write_misses                         0                       # DTB write misses
system.cpu.dtb.write_acv                            0                       # DTB write access violations
system.cpu.dtb.write_accesses                       0                       # DTB write accesses
system.cpu.dtb.data_hits                            0                       # DTB hits
system.cpu.dtb.data_misses                          0                       # DTB misses
system.cpu.dtb.data_acv                             0                       # DTB access violations
system.cpu.dtb.data_accesses                        0                       # DTB accesses
system.cpu.itb.fetch_hits                           0                       # ITB hits
system.cpu.itb.fetch_misses                         0                       # ITB misses
system.cpu.itb.fetch_acv                            0                       # ITB acv
system.cpu.itb.fetch_accesses                       0                       # ITB accesses
system.cpu.itb.read_hits                            0                       # DTB read hits
system.cpu.itb.read_misses                          0                       # DTB read misses
system.cpu.itb.read_acv                             0                       # DTB read access violations
system.cpu.itb.read_accesses                        0                       # DTB read accesses
system.cpu.itb.write_hits                           0                       # DTB write hits
system.cpu.itb.write_misses                         0                       # DTB write misses
system.cpu.itb.write_acv                            0                       # DTB write access violations
system.cpu.itb.write_accesses                       0                       # DTB write accesses
system.cpu.itb.data_hits                            0                       # DTB hits
system.cpu.itb.data_misses                          0                       # DTB misses
system.cpu.itb.data_acv                             0                       # DTB access violations
system.cpu.itb.data_accesses                        0                       # DTB accesses
system.cpu.numCycles                                0                       # number of cpu cycles simulated
system.cpu.numWorkItemsStarted                      0                       # number of work items this cpu started
system.cpu.numWorkItemsCompleted                    0                       # number of work items this cpu completed
system.cpu.committedInsts                           0                       # Number of instructions committed
system.cpu.committedOps                             0                       # Number of ops (including micro ops) committed
system.cpu.num_int_alu_accesses                     0                       # Number of integer alu accesses
system.cpu.num_fp_alu_accesses                      0                       # Number of float alu accesses
system.cpu.num_func_calls                           0                       # number of times a function call or return occured
system.cpu.num_conditional_control_insts            0                       # number of instructions that are conditional controls
system.cpu.num_int_insts                            0                       # number of integer instructions
system.cpu.num_fp_insts                             0                       # number of float instructions
system.cpu.num_int_register_reads                   0                       # number of times the integer registers were read
system.cpu.num_int_register_writes                  0                       # number of times the integer registers were written
system.cpu.num_fp_register_reads                    0                       # number of times the floating registers were read
system.cpu.num_fp_register_writes                   0                       # number of times the floating registers were written
system.cpu.num_mem_refs                             0                       # number of memory refs
system.cpu.num_load_insts                           0                       # Number of load instructions
system.cpu.num_store_insts                          0                       # Number of store instructions
system.cpu.num_idle_cycles                          0                       # Number of idle cycles
system.cpu.num_busy_cycles                          0                       # Number of busy cycles
system.cpu.not_idle_fraction                        1                       # Percentage of non-idle cycles
system.cpu.idle_fraction                            0                       # Percentage of idle cycles
system.cpu.op_class::No_OpClass                     0                       # Class of executed instruction
system.cpu.op_class::IntAlu                         0                       # Class of executed instruction
system.cpu.op_class::IntMult                        0                       # Class of executed instruction
system.cpu.op_class::IntDiv                         0                       # Class of executed instruction
system.cpu.op_class::FloatAdd                       0                       # Class of executed instruction
system.cpu.op_class::FloatCmp                       0                       # Class of executed instruction
system.cpu.op_class::FloatCvt                       0                       # Class of executed instruction
system.cpu.op_class::FloatMult                      0                       # Class of executed instruction
system.cpu.op_class::FloatDiv                       0                       # Class of executed instruction
system.cpu.op_class::FloatSqrt                      0                       # Class of executed instruction
system.cpu.op_class::SimdAdd                        0                       # Class of executed instruction
system.cpu.op_class::SimdAddAcc                     0                       # Class of executed instruction
system.cpu.op_class::SimdAlu                        0                       # Class of executed instruction
system.cpu.op_class::SimdCmp                        0                       # Class of executed instruction
system.cpu.op_class::SimdCvt                        0                       # Class of executed instruction
system.cpu.op_class::SimdMisc                       0                       # Class of executed instruction
system.cpu.op_class::SimdMult                       0                       # Class of executed instruction
system.cpu.op_class::SimdMultAcc                    0                       # Class of executed instruction
system.cpu.op_class::SimdShift                      0                       # Class of executed instruction
system.cpu.op_class::SimdShiftAcc                   0                       # Class of executed instruction
system.cpu.op_class::SimdSqrt                       0                       # Class of executed instruction
system.cpu.op_class::SimdFloatAdd                   0                       # Class of executed instruction
system.cpu.op_class::SimdFloatAlu                   0                       # Class of executed instruction
system.cpu.op_class::SimdFloatCmp                   0                       # Class of executed instruction
system.cpu.op_class::SimdFloatCvt                   0                       # Class of executed instruction
system.cpu.op_class::SimdFloatDiv                   0                       # Class of executed instruction
system.cpu.op_class::SimdFloatMisc                  0                       # Class of executed instruction
system.cpu.op_class::SimdFloatMult                  0                       # Class of executed instruction
system.cpu.op_class::SimdFloatMultAcc               0                       # Class of executed instruction
system.cpu.op_class::SimdFloatSqrt                  0                       # Class of executed instruction
system.cpu.op_class::MemRead                        0                       # Class of executed instruction
system.cpu.op_class::MemWrite                       0                       # Class of executed instruction
system.cpu.op_class::IprAccess                      0                       # Class of executed instruction
system.cpu.op_class::InstPrefetch                   0                       # Class of executed instruction
system.cpu.op_class::total                          0                       # Class of executed instruction
system.cpu.kern.inst.arm                            0                       # number of arm instructions executed
system.cpu.kern.inst.quiesce                        0                       # number of quiesce instructions executed
system.cpu.kern.inst.hwrei                       2781                       # number of hwrei instructions executed
system.cpu.kern.ipl_count::0                      635     49.15%     49.15% # number of times we switched to this ipl
system.cpu.kern.ipl_count::22                       1      0.08%     49.23% # number of times we switched to this ipl
system.cpu.kern.ipl_count::31                     656     50.77%    100.00% # number of times we switched to this ipl
system.cpu.kern.ipl_count::total                 1292                       # number of times we switched to this ipl
system.cpu.kern.ipl_good::0                       633     49.96%     49.96% # number of times we switched to this ipl from a different ipl
system.cpu.kern.ipl_good::22                        1      0.08%     50.04% # number of times we switched to this ipl from a different ipl
system.cpu.kern.ipl_good::31                      633     49.96%    100.00% # number of times we switched to this ipl from a different ipl
system.cpu.kern.ipl_good::total                  1267                       # number of times we switched to this ipl from a different ipl
system.cpu.kern.ipl_ticks::0                716076500     89.70%     89.70% # number of cycles we spent at this ipl
system.cpu.kern.ipl_ticks::22                 1281500      0.16%     89.86% # number of cycles we spent at this ipl
system.cpu.kern.ipl_ticks::31                80923500     10.14%    100.00% # number of cycles we spent at this ipl
system.cpu.kern.ipl_ticks::total            798281500                       # number of cycles we spent at this ipl
system.cpu.kern.ipl_used::0                  0.996850                       # fraction of swpipl calls that actually changed the ipl
system.cpu.kern.ipl_used::22                        1                       # fraction of swpipl calls that actually changed the ipl
system.cpu.kern.ipl_used::31                 0.964939                       # fraction of swpipl calls that actually changed the ipl
system.cpu.kern.ipl_used::total              0.980650                       # fraction of swpipl calls that actually changed the ipl
system.cpu.kern.syscall::2                          1      5.56%      5.56% # number of syscalls executed
system.cpu.kern.syscall::3                          2     11.11%     16.67% # number of syscalls executed
system.cpu.kern.syscall::6                          2     11.11%     27.78% # number of syscalls executed
system.cpu.kern.syscall::17                         1      5.56%     33.33% # number of syscalls executed
system.cpu.kern.syscall::19                         1      5.56%     38.89% # number of syscalls executed
system.cpu.kern.syscall::33                         1      5.56%     44.44% # number of syscalls executed
system.cpu.kern.syscall::45                         3     16.67%     61.11% # number of syscalls executed
system.cpu.kern.syscall::48                         1      5.56%     66.67% # number of syscalls executed
system.cpu.kern.syscall::59                         1      5.56%     72.22% # number of syscalls executed
system.cpu.kern.syscall::71                         4     22.22%     94.44% # number of syscalls executed
system.cpu.kern.syscall::74                         1      5.56%    100.00% # number of syscalls executed
system.cpu.kern.syscall::total                     18                       # number of syscalls executed
system.cpu.kern.callpal::swpctx                   118      8.10%      8.10% # number of callpals executed
system.cpu.kern.callpal::tbi                        6      0.41%      8.51% # number of callpals executed
system.cpu.kern.callpal::swpipl                  1107     75.98%     84.49% # number of callpals executed
system.cpu.kern.callpal::rdps                       3      0.21%     84.69% # number of callpals executed
system.cpu.kern.callpal::wrusp                      1      0.07%     84.76% # number of callpals executed
system.cpu.kern.callpal::rdusp                      1      0.07%     84.83% # number of callpals executed
system.cpu.kern.callpal::rti                      184     12.63%     97.46% # number of callpals executed
system.cpu.kern.callpal::callsys                   33      2.26%     99.73% # number of callpals executed
system.cpu.kern.callpal::imb                        4      0.27%    100.00% # number of callpals executed
system.cpu.kern.callpal::total                   1457                       # number of callpals executed
system.cpu.kern.mode_switch::kernel               302                       # number of protection mode switches
system.cpu.kern.mode_switch::user                 181                       # number of protection mode switches
system.cpu.kern.mode_switch::idle                   0                       # number of protection mode switches
system.cpu.kern.mode_good::kernel                 181                      
system.cpu.kern.mode_good::user                   181                      
system.cpu.kern.mode_good::idle                     0                      
system.cpu.kern.mode_switch_good::kernel     0.599338                       # fraction of useful protection mode switches
system.cpu.kern.mode_switch_good::user              1                       # fraction of useful protection mode switches
system.cpu.kern.mode_switch_good::idle            nan                       # fraction of useful protection mode switches
system.cpu.kern.mode_switch_good::total      0.749482                       # fraction of useful protection mode switches
system.cpu.kern.mode_ticks::kernel          541315500     67.81%     67.81% # number of ticks spent at the given mode
system.cpu.kern.mode_ticks::user            256959000     32.19%    100.00% # number of ticks spent at the given mode
system.cpu.kern.mode_ticks::idle                    0      0.00%    100.00% # number of ticks spent at the given mode
system.cpu.kern.swap_context                      118                       # number of times the context was actually changed
system.cpu.dcache.tags.replacements             18298                       # number of replacements
system.cpu.dcache.tags.tagsinuse                  512                       # Cycle average of tags in use
system.cpu.dcache.tags.total_refs              199502                       # Total number of references to valid blocks.
system.cpu.dcache.tags.sampled_refs             18298                       # Sample count of references to valid blocks.
system.cpu.dcache.tags.avg_refs             10.902940                       # Average number of references to valid blocks.
system.cpu.dcache.tags.warmup_cycle                 0                       # Cycle when the warmup percentage was hit.
system.cpu.dcache.tags.occ_blocks::cpu.data    28.883667                       # Average occupied blocks per requestor
system.cpu.dcache.tags.occ_blocks::switch_cpus.data   483.116333                       # Average occupied blocks per requestor
system.cpu.dcache.tags.occ_percent::cpu.data     0.056413                       # Average percentage of cache occupancy
system.cpu.dcache.tags.occ_percent::switch_cpus.data     0.943587                       # Average percentage of cache occupancy
system.cpu.dcache.tags.occ_percent::total            1                       # Average percentage of cache occupancy
system.cpu.dcache.tags.occ_task_id_blocks::1024          512                       # Occupied blocks per task id
system.cpu.dcache.tags.age_task_id_blocks_1024::0          428                       # Occupied blocks per task id
system.cpu.dcache.tags.age_task_id_blocks_1024::1           83                       # Occupied blocks per task id
system.cpu.dcache.tags.age_task_id_blocks_1024::2            1                       # Occupied blocks per task id
system.cpu.dcache.tags.occ_task_id_percent::1024            1                       # Percentage of cache occupancy per task id
system.cpu.dcache.tags.tag_accesses           1181546                       # Number of tag accesses
system.cpu.dcache.tags.data_accesses          1181546                       # Number of data accesses
system.cpu.dcache.ReadReq_hits::switch_cpus.data       133474                       # number of ReadReq hits
system.cpu.dcache.ReadReq_hits::total          133474                       # number of ReadReq hits
system.cpu.dcache.WriteReq_hits::switch_cpus.data        58677                       # number of WriteReq hits
system.cpu.dcache.WriteReq_hits::total          58677                       # number of WriteReq hits
system.cpu.dcache.LoadLockedReq_hits::switch_cpus.data         2210                       # number of LoadLockedReq hits
system.cpu.dcache.LoadLockedReq_hits::total         2210                       # number of LoadLockedReq hits
system.cpu.dcache.StoreCondReq_hits::switch_cpus.data         2378                       # number of StoreCondReq hits
system.cpu.dcache.StoreCondReq_hits::total         2378                       # number of StoreCondReq hits
system.cpu.dcache.demand_hits::switch_cpus.data       192151                       # number of demand (read+write) hits
system.cpu.dcache.demand_hits::total           192151                       # number of demand (read+write) hits
system.cpu.dcache.overall_hits::switch_cpus.data       192151                       # number of overall hits
system.cpu.dcache.overall_hits::total          192151                       # number of overall hits
system.cpu.dcache.ReadReq_misses::switch_cpus.data        26110                       # number of ReadReq misses
system.cpu.dcache.ReadReq_misses::total         26110                       # number of ReadReq misses
system.cpu.dcache.WriteReq_misses::switch_cpus.data        67562                       # number of WriteReq misses
system.cpu.dcache.WriteReq_misses::total        67562                       # number of WriteReq misses
system.cpu.dcache.LoadLockedReq_misses::switch_cpus.data          401                       # number of LoadLockedReq misses
system.cpu.dcache.LoadLockedReq_misses::total          401                       # number of LoadLockedReq misses
system.cpu.dcache.demand_misses::switch_cpus.data        93672                       # number of demand (read+write) misses
system.cpu.dcache.demand_misses::total          93672                       # number of demand (read+write) misses
system.cpu.dcache.overall_misses::switch_cpus.data        93672                       # number of overall misses
system.cpu.dcache.overall_misses::total         93672                       # number of overall misses
system.cpu.dcache.ReadReq_miss_latency::switch_cpus.data    727259250                       # number of ReadReq miss cycles
system.cpu.dcache.ReadReq_miss_latency::total    727259250                       # number of ReadReq miss cycles
system.cpu.dcache.WriteReq_miss_latency::switch_cpus.data   1063378695                       # number of WriteReq miss cycles
system.cpu.dcache.WriteReq_miss_latency::total   1063378695                       # number of WriteReq miss cycles
system.cpu.dcache.LoadLockedReq_miss_latency::switch_cpus.data     10274750                       # number of LoadLockedReq miss cycles
system.cpu.dcache.LoadLockedReq_miss_latency::total     10274750                       # number of LoadLockedReq miss cycles
system.cpu.dcache.demand_miss_latency::switch_cpus.data   1790637945                       # number of demand (read+write) miss cycles
system.cpu.dcache.demand_miss_latency::total   1790637945                       # number of demand (read+write) miss cycles
system.cpu.dcache.overall_miss_latency::switch_cpus.data   1790637945                       # number of overall miss cycles
system.cpu.dcache.overall_miss_latency::total   1790637945                       # number of overall miss cycles
system.cpu.dcache.ReadReq_accesses::switch_cpus.data       159584                       # number of ReadReq accesses(hits+misses)
system.cpu.dcache.ReadReq_accesses::total       159584                       # number of ReadReq accesses(hits+misses)
system.cpu.dcache.WriteReq_accesses::switch_cpus.data       126239                       # number of WriteReq accesses(hits+misses)
system.cpu.dcache.WriteReq_accesses::total       126239                       # number of WriteReq accesses(hits+misses)
system.cpu.dcache.LoadLockedReq_accesses::switch_cpus.data         2611                       # number of LoadLockedReq accesses(hits+misses)
system.cpu.dcache.LoadLockedReq_accesses::total         2611                       # number of LoadLockedReq accesses(hits+misses)
system.cpu.dcache.StoreCondReq_accesses::switch_cpus.data         2378                       # number of StoreCondReq accesses(hits+misses)
system.cpu.dcache.StoreCondReq_accesses::total         2378                       # number of StoreCondReq accesses(hits+misses)
system.cpu.dcache.demand_accesses::switch_cpus.data       285823                       # number of demand (read+write) accesses
system.cpu.dcache.demand_accesses::total       285823                       # number of demand (read+write) accesses
system.cpu.dcache.overall_accesses::switch_cpus.data       285823                       # number of overall (read+write) accesses
system.cpu.dcache.overall_accesses::total       285823                       # number of overall (read+write) accesses
system.cpu.dcache.ReadReq_miss_rate::switch_cpus.data     0.163613                       # miss rate for ReadReq accesses
system.cpu.dcache.ReadReq_miss_rate::total     0.163613                       # miss rate for ReadReq accesses
system.cpu.dcache.WriteReq_miss_rate::switch_cpus.data     0.535191                       # miss rate for WriteReq accesses
system.cpu.dcache.WriteReq_miss_rate::total     0.535191                       # miss rate for WriteReq accesses
system.cpu.dcache.LoadLockedReq_miss_rate::switch_cpus.data     0.153581                       # miss rate for LoadLockedReq accesses
system.cpu.dcache.LoadLockedReq_miss_rate::total     0.153581                       # miss rate for LoadLockedReq accesses
system.cpu.dcache.demand_miss_rate::switch_cpus.data     0.327727                       # miss rate for demand accesses
system.cpu.dcache.demand_miss_rate::total     0.327727                       # miss rate for demand accesses
system.cpu.dcache.overall_miss_rate::switch_cpus.data     0.327727                       # miss rate for overall accesses
system.cpu.dcache.overall_miss_rate::total     0.327727                       # miss rate for overall accesses
system.cpu.dcache.ReadReq_avg_miss_latency::switch_cpus.data 27853.667177                       # average ReadReq miss latency
system.cpu.dcache.ReadReq_avg_miss_latency::total 27853.667177                       # average ReadReq miss latency
system.cpu.dcache.WriteReq_avg_miss_latency::switch_cpus.data 15739.301604                       # average WriteReq miss latency
system.cpu.dcache.WriteReq_avg_miss_latency::total 15739.301604                       # average WriteReq miss latency
system.cpu.dcache.LoadLockedReq_avg_miss_latency::switch_cpus.data 25622.817955                       # average LoadLockedReq miss latency
system.cpu.dcache.LoadLockedReq_avg_miss_latency::total 25622.817955                       # average LoadLockedReq miss latency
system.cpu.dcache.demand_avg_miss_latency::switch_cpus.data 19116.042627                       # average overall miss latency
system.cpu.dcache.demand_avg_miss_latency::total 19116.042627                       # average overall miss latency
system.cpu.dcache.overall_avg_miss_latency::switch_cpus.data 19116.042627                       # average overall miss latency
system.cpu.dcache.overall_avg_miss_latency::total 19116.042627                       # average overall miss latency
system.cpu.dcache.blocked_cycles::no_mshrs        41975                       # number of cycles access was blocked
system.cpu.dcache.blocked_cycles::no_targets          107                       # number of cycles access was blocked
system.cpu.dcache.blocked::no_mshrs              4187                       # number of cycles access was blocked
system.cpu.dcache.blocked::no_targets               1                       # number of cycles access was blocked
system.cpu.dcache.avg_blocked_cycles::no_mshrs    10.025078                       # average number of cycles each access was blocked
system.cpu.dcache.avg_blocked_cycles::no_targets          107                       # average number of cycles each access was blocked
system.cpu.dcache.fast_writes                       0                       # number of fast writes performed
system.cpu.dcache.cache_copies                      0                       # number of cache copies performed
system.cpu.dcache.writebacks::writebacks        13127                       # number of writebacks
system.cpu.dcache.writebacks::total             13127                       # number of writebacks
system.cpu.dcache.ReadReq_mshr_hits::switch_cpus.data        17131                       # number of ReadReq MSHR hits
system.cpu.dcache.ReadReq_mshr_hits::total        17131                       # number of ReadReq MSHR hits
system.cpu.dcache.WriteReq_mshr_hits::switch_cpus.data        58460                       # number of WriteReq MSHR hits
system.cpu.dcache.WriteReq_mshr_hits::total        58460                       # number of WriteReq MSHR hits
system.cpu.dcache.LoadLockedReq_mshr_hits::switch_cpus.data          177                       # number of LoadLockedReq MSHR hits
system.cpu.dcache.LoadLockedReq_mshr_hits::total          177                       # number of LoadLockedReq MSHR hits
system.cpu.dcache.demand_mshr_hits::switch_cpus.data        75591                       # number of demand (read+write) MSHR hits
system.cpu.dcache.demand_mshr_hits::total        75591                       # number of demand (read+write) MSHR hits
system.cpu.dcache.overall_mshr_hits::switch_cpus.data        75591                       # number of overall MSHR hits
system.cpu.dcache.overall_mshr_hits::total        75591                       # number of overall MSHR hits
system.cpu.dcache.ReadReq_mshr_misses::switch_cpus.data         8979                       # number of ReadReq MSHR misses
system.cpu.dcache.ReadReq_mshr_misses::total         8979                       # number of ReadReq MSHR misses
system.cpu.dcache.WriteReq_mshr_misses::switch_cpus.data         9102                       # number of WriteReq MSHR misses
system.cpu.dcache.WriteReq_mshr_misses::total         9102                       # number of WriteReq MSHR misses
system.cpu.dcache.LoadLockedReq_mshr_misses::switch_cpus.data          224                       # number of LoadLockedReq MSHR misses
system.cpu.dcache.LoadLockedReq_mshr_misses::total          224                       # number of LoadLockedReq MSHR misses
system.cpu.dcache.demand_mshr_misses::switch_cpus.data        18081                       # number of demand (read+write) MSHR misses
system.cpu.dcache.demand_mshr_misses::total        18081                       # number of demand (read+write) MSHR misses
system.cpu.dcache.overall_mshr_misses::switch_cpus.data        18081                       # number of overall MSHR misses
system.cpu.dcache.overall_mshr_misses::total        18081                       # number of overall MSHR misses
system.cpu.dcache.WriteReq_mshr_uncacheable::switch_cpus.data            1                       # number of WriteReq MSHR uncacheable
system.cpu.dcache.WriteReq_mshr_uncacheable::total            1                       # number of WriteReq MSHR uncacheable
system.cpu.dcache.overall_mshr_uncacheable_misses::switch_cpus.data            1                       # number of overall MSHR uncacheable misses
system.cpu.dcache.overall_mshr_uncacheable_misses::total            1                       # number of overall MSHR uncacheable misses
system.cpu.dcache.ReadReq_mshr_miss_latency::switch_cpus.data    263222000                       # number of ReadReq MSHR miss cycles
system.cpu.dcache.ReadReq_mshr_miss_latency::total    263222000                       # number of ReadReq MSHR miss cycles
system.cpu.dcache.WriteReq_mshr_miss_latency::switch_cpus.data    146087550                       # number of WriteReq MSHR miss cycles
system.cpu.dcache.WriteReq_mshr_miss_latency::total    146087550                       # number of WriteReq MSHR miss cycles
system.cpu.dcache.LoadLockedReq_mshr_miss_latency::switch_cpus.data      4920500                       # number of LoadLockedReq MSHR miss cycles
system.cpu.dcache.LoadLockedReq_mshr_miss_latency::total      4920500                       # number of LoadLockedReq MSHR miss cycles
system.cpu.dcache.demand_mshr_miss_latency::switch_cpus.data    409309550                       # number of demand (read+write) MSHR miss cycles
system.cpu.dcache.demand_mshr_miss_latency::total    409309550                       # number of demand (read+write) MSHR miss cycles
system.cpu.dcache.overall_mshr_miss_latency::switch_cpus.data    409309550                       # number of overall MSHR miss cycles
system.cpu.dcache.overall_mshr_miss_latency::total    409309550                       # number of overall MSHR miss cycles
system.cpu.dcache.WriteReq_mshr_uncacheable_latency::switch_cpus.data       223500                       # number of WriteReq MSHR uncacheable cycles
system.cpu.dcache.WriteReq_mshr_uncacheable_latency::total       223500                       # number of WriteReq MSHR uncacheable cycles
system.cpu.dcache.overall_mshr_uncacheable_latency::switch_cpus.data       223500                       # number of overall MSHR uncacheable cycles
system.cpu.dcache.overall_mshr_uncacheable_latency::total       223500                       # number of overall MSHR uncacheable cycles
system.cpu.dcache.ReadReq_mshr_miss_rate::switch_cpus.data     0.056265                       # mshr miss rate for ReadReq accesses
system.cpu.dcache.ReadReq_mshr_miss_rate::total     0.056265                       # mshr miss rate for ReadReq accesses
system.cpu.dcache.WriteReq_mshr_miss_rate::switch_cpus.data     0.072101                       # mshr miss rate for WriteReq accesses
system.cpu.dcache.WriteReq_mshr_miss_rate::total     0.072101                       # mshr miss rate for WriteReq accesses
system.cpu.dcache.LoadLockedReq_mshr_miss_rate::switch_cpus.data     0.085791                       # mshr miss rate for LoadLockedReq accesses
system.cpu.dcache.LoadLockedReq_mshr_miss_rate::total     0.085791                       # mshr miss rate for LoadLockedReq accesses
system.cpu.dcache.demand_mshr_miss_rate::switch_cpus.data     0.063259                       # mshr miss rate for demand accesses
system.cpu.dcache.demand_mshr_miss_rate::total     0.063259                       # mshr miss rate for demand accesses
system.cpu.dcache.overall_mshr_miss_rate::switch_cpus.data     0.063259                       # mshr miss rate for overall accesses
system.cpu.dcache.overall_mshr_miss_rate::total     0.063259                       # mshr miss rate for overall accesses
system.cpu.dcache.ReadReq_avg_mshr_miss_latency::switch_cpus.data 29315.291235                       # average ReadReq mshr miss latency
system.cpu.dcache.ReadReq_avg_mshr_miss_latency::total 29315.291235                       # average ReadReq mshr miss latency
system.cpu.dcache.WriteReq_avg_mshr_miss_latency::switch_cpus.data 16050.049440                       # average WriteReq mshr miss latency
system.cpu.dcache.WriteReq_avg_mshr_miss_latency::total 16050.049440                       # average WriteReq mshr miss latency
system.cpu.dcache.LoadLockedReq_avg_mshr_miss_latency::switch_cpus.data 21966.517857                       # average LoadLockedReq mshr miss latency
system.cpu.dcache.LoadLockedReq_avg_mshr_miss_latency::total 21966.517857                       # average LoadLockedReq mshr miss latency
system.cpu.dcache.demand_avg_mshr_miss_latency::switch_cpus.data 22637.550467                       # average overall mshr miss latency
system.cpu.dcache.demand_avg_mshr_miss_latency::total 22637.550467                       # average overall mshr miss latency
system.cpu.dcache.overall_avg_mshr_miss_latency::switch_cpus.data 22637.550467                       # average overall mshr miss latency
system.cpu.dcache.overall_avg_mshr_miss_latency::total 22637.550467                       # average overall mshr miss latency
system.cpu.dcache.WriteReq_avg_mshr_uncacheable_latency::switch_cpus.data       223500                       # average WriteReq mshr uncacheable latency
system.cpu.dcache.WriteReq_avg_mshr_uncacheable_latency::total       223500                       # average WriteReq mshr uncacheable latency
system.cpu.dcache.overall_avg_mshr_uncacheable_latency::switch_cpus.data       223500                       # average overall mshr uncacheable latency
system.cpu.dcache.overall_avg_mshr_uncacheable_latency::total       223500                       # average overall mshr uncacheable latency
system.cpu.dcache.no_allocate_misses                0                       # Number of misses that were no-allocate
system.cpu.icache.tags.replacements             10424                       # number of replacements
system.cpu.icache.tags.tagsinuse           511.927073                       # Cycle average of tags in use
system.cpu.icache.tags.total_refs              360357                       # Total number of references to valid blocks.
system.cpu.icache.tags.sampled_refs             10424                       # Sample count of references to valid blocks.
system.cpu.icache.tags.avg_refs             34.569935                       # Average number of references to valid blocks.
system.cpu.icache.tags.warmup_cycle                 0                       # Cycle when the warmup percentage was hit.
system.cpu.icache.tags.occ_blocks::cpu.inst    24.841613                       # Average occupied blocks per requestor
system.cpu.icache.tags.occ_blocks::switch_cpus.inst   487.085460                       # Average occupied blocks per requestor
system.cpu.icache.tags.occ_percent::cpu.inst     0.048519                       # Average percentage of cache occupancy
system.cpu.icache.tags.occ_percent::switch_cpus.inst     0.951339                       # Average percentage of cache occupancy
system.cpu.icache.tags.occ_percent::total     0.999858                       # Average percentage of cache occupancy
system.cpu.icache.tags.occ_task_id_blocks::1024          511                       # Occupied blocks per task id
system.cpu.icache.tags.age_task_id_blocks_1024::0           66                       # Occupied blocks per task id
system.cpu.icache.tags.age_task_id_blocks_1024::1          110                       # Occupied blocks per task id
system.cpu.icache.tags.age_task_id_blocks_1024::2          335                       # Occupied blocks per task id
system.cpu.icache.tags.occ_task_id_percent::1024     0.998047                       # Percentage of cache occupancy per task id
system.cpu.icache.tags.tag_accesses            333930                       # Number of tag accesses
system.cpu.icache.tags.data_accesses           333930                       # Number of data accesses
system.cpu.icache.ReadReq_hits::switch_cpus.inst       149377                       # number of ReadReq hits
system.cpu.icache.ReadReq_hits::total          149377                       # number of ReadReq hits
system.cpu.icache.demand_hits::switch_cpus.inst       149377                       # number of demand (read+write) hits
system.cpu.icache.demand_hits::total           149377                       # number of demand (read+write) hits
system.cpu.icache.overall_hits::switch_cpus.inst       149377                       # number of overall hits
system.cpu.icache.overall_hits::total          149377                       # number of overall hits
system.cpu.icache.ReadReq_misses::switch_cpus.inst        12373                       # number of ReadReq misses
system.cpu.icache.ReadReq_misses::total         12373                       # number of ReadReq misses
system.cpu.icache.demand_misses::switch_cpus.inst        12373                       # number of demand (read+write) misses
system.cpu.icache.demand_misses::total          12373                       # number of demand (read+write) misses
system.cpu.icache.overall_misses::switch_cpus.inst        12373                       # number of overall misses
system.cpu.icache.overall_misses::total         12373                       # number of overall misses
system.cpu.icache.ReadReq_miss_latency::switch_cpus.inst    575585478                       # number of ReadReq miss cycles
system.cpu.icache.ReadReq_miss_latency::total    575585478                       # number of ReadReq miss cycles
system.cpu.icache.demand_miss_latency::switch_cpus.inst    575585478                       # number of demand (read+write) miss cycles
system.cpu.icache.demand_miss_latency::total    575585478                       # number of demand (read+write) miss cycles
system.cpu.icache.overall_miss_latency::switch_cpus.inst    575585478                       # number of overall miss cycles
system.cpu.icache.overall_miss_latency::total    575585478                       # number of overall miss cycles
system.cpu.icache.ReadReq_accesses::switch_cpus.inst       161750                       # number of ReadReq accesses(hits+misses)
system.cpu.icache.ReadReq_accesses::total       161750                       # number of ReadReq accesses(hits+misses)
system.cpu.icache.demand_accesses::switch_cpus.inst       161750                       # number of demand (read+write) accesses
system.cpu.icache.demand_accesses::total       161750                       # number of demand (read+write) accesses
system.cpu.icache.overall_accesses::switch_cpus.inst       161750                       # number of overall (read+write) accesses
system.cpu.icache.overall_accesses::total       161750                       # number of overall (read+write) accesses
system.cpu.icache.ReadReq_miss_rate::switch_cpus.inst     0.076495                       # miss rate for ReadReq accesses
system.cpu.icache.ReadReq_miss_rate::total     0.076495                       # miss rate for ReadReq accesses
system.cpu.icache.demand_miss_rate::switch_cpus.inst     0.076495                       # miss rate for demand accesses
system.cpu.icache.demand_miss_rate::total     0.076495                       # miss rate for demand accesses
system.cpu.icache.overall_miss_rate::switch_cpus.inst     0.076495                       # miss rate for overall accesses
system.cpu.icache.overall_miss_rate::total     0.076495                       # miss rate for overall accesses
system.cpu.icache.ReadReq_avg_miss_latency::switch_cpus.inst 46519.476117                       # average ReadReq miss latency
system.cpu.icache.ReadReq_avg_miss_latency::total 46519.476117                       # average ReadReq miss latency
system.cpu.icache.demand_avg_miss_latency::switch_cpus.inst 46519.476117                       # average overall miss latency
system.cpu.icache.demand_avg_miss_latency::total 46519.476117                       # average overall miss latency
system.cpu.icache.overall_avg_miss_latency::switch_cpus.inst 46519.476117                       # average overall miss latency
system.cpu.icache.overall_avg_miss_latency::total 46519.476117                       # average overall miss latency
system.cpu.icache.blocked_cycles::no_mshrs         1896                       # number of cycles access was blocked
system.cpu.icache.blocked_cycles::no_targets            0                       # number of cycles access was blocked
system.cpu.icache.blocked::no_mshrs                51                       # number of cycles access was blocked
system.cpu.icache.blocked::no_targets               0                       # number of cycles access was blocked
system.cpu.icache.avg_blocked_cycles::no_mshrs    37.176471                       # average number of cycles each access was blocked
system.cpu.icache.avg_blocked_cycles::no_targets          nan                       # average number of cycles each access was blocked
system.cpu.icache.fast_writes                       0                       # number of fast writes performed
system.cpu.icache.cache_copies                      0                       # number of cache copies performed
system.cpu.icache.ReadReq_mshr_hits::switch_cpus.inst         1941                       # number of ReadReq MSHR hits
system.cpu.icache.ReadReq_mshr_hits::total         1941                       # number of ReadReq MSHR hits
system.cpu.icache.demand_mshr_hits::switch_cpus.inst         1941                       # number of demand (read+write) MSHR hits
system.cpu.icache.demand_mshr_hits::total         1941                       # number of demand (read+write) MSHR hits
system.cpu.icache.overall_mshr_hits::switch_cpus.inst         1941                       # number of overall MSHR hits
system.cpu.icache.overall_mshr_hits::total         1941                       # number of overall MSHR hits
system.cpu.icache.ReadReq_mshr_misses::switch_cpus.inst        10432                       # number of ReadReq MSHR misses
system.cpu.icache.ReadReq_mshr_misses::total        10432                       # number of ReadReq MSHR misses
system.cpu.icache.demand_mshr_misses::switch_cpus.inst        10432                       # number of demand (read+write) MSHR misses
system.cpu.icache.demand_mshr_misses::total        10432                       # number of demand (read+write) MSHR misses
system.cpu.icache.overall_mshr_misses::switch_cpus.inst        10432                       # number of overall MSHR misses
system.cpu.icache.overall_mshr_misses::total        10432                       # number of overall MSHR misses
system.cpu.icache.ReadReq_mshr_miss_latency::switch_cpus.inst    463623514                       # number of ReadReq MSHR miss cycles
system.cpu.icache.ReadReq_mshr_miss_latency::total    463623514                       # number of ReadReq MSHR miss cycles
system.cpu.icache.demand_mshr_miss_latency::switch_cpus.inst    463623514                       # number of demand (read+write) MSHR miss cycles
system.cpu.icache.demand_mshr_miss_latency::total    463623514                       # number of demand (read+write) MSHR miss cycles
system.cpu.icache.overall_mshr_miss_latency::switch_cpus.inst    463623514                       # number of overall MSHR miss cycles
system.cpu.icache.overall_mshr_miss_latency::total    463623514                       # number of overall MSHR miss cycles
system.cpu.icache.ReadReq_mshr_miss_rate::switch_cpus.inst     0.064495                       # mshr miss rate for ReadReq accesses
system.cpu.icache.ReadReq_mshr_miss_rate::total     0.064495                       # mshr miss rate for ReadReq accesses
system.cpu.icache.demand_mshr_miss_rate::switch_cpus.inst     0.064495                       # mshr miss rate for demand accesses
system.cpu.icache.demand_mshr_miss_rate::total     0.064495                       # mshr miss rate for demand accesses
system.cpu.icache.overall_mshr_miss_rate::switch_cpus.inst     0.064495                       # mshr miss rate for overall accesses
system.cpu.icache.overall_mshr_miss_rate::total     0.064495                       # mshr miss rate for overall accesses
system.cpu.icache.ReadReq_avg_mshr_miss_latency::switch_cpus.inst 44442.438075                       # average ReadReq mshr miss latency
system.cpu.icache.ReadReq_avg_mshr_miss_latency::total 44442.438075                       # average ReadReq mshr miss latency
system.cpu.icache.demand_avg_mshr_miss_latency::switch_cpus.inst 44442.438075                       # average overall mshr miss latency
[...]
system.switch_cpus.iew.wb_producers            950675                       # num instructions producing a value
system.switch_cpus.iew.wb_consumers           1287450                       # num instructions consuming a value
system.switch_cpus.iew.wb_penalized                 0                       # number of instrctions required to write to 'other' IQ
system.switch_cpus.iew.wb_rate               0.480196                       # insts written-back per cycle
system.switch_cpus.iew.wb_fanout             0.738417                       # average fanout of values written-back
system.switch_cpus.iew.wb_penalized_rate            0                       # fraction of instructions written-back that wrote to 'other' IQ
system.switch_cpus.commit.commitSquashedInsts       338473                       # The number of squashed insts skipped by commit
system.switch_cpus.commit.commitNonSpecStalls        27450                       # The number of times commit has been forced to stall to communicate backwards
system.switch_cpus.commit.branchMispredicts        18221                       # The number of times a branch was mispredicted
system.switch_cpus.commit.committed_per_cycle::samples      3065866                       # Number of insts commited each cycle
system.switch_cpus.commit.committed_per_cycle::mean     0.562158                       # Number of insts commited each cycle
system.switch_cpus.commit.committed_per_cycle::stdev     1.637205                       # Number of insts commited each cycle
system.switch_cpus.commit.committed_per_cycle::underflows            0      0.00%      0.00% # Number of insts commited each cycle
system.switch_cpus.commit.committed_per_cycle::0      2511804     81.93%     81.93% # Number of insts commited each cycle
system.switch_cpus.commit.committed_per_cycle::1       241952      7.89%     89.82% # Number of insts commited each cycle
system.switch_cpus.commit.committed_per_cycle::2        94494      3.08%     92.90% # Number of insts commited each cycle
system.switch_cpus.commit.committed_per_cycle::3        37139      1.21%     94.11% # Number of insts commited each cycle
system.switch_cpus.commit.committed_per_cycle::4        39063      1.27%     95.39% # Number of insts commited each cycle
system.switch_cpus.commit.committed_per_cycle::5        20758      0.68%     96.06% # Number of insts commited each cycle
system.switch_cpus.commit.committed_per_cycle::6        14413      0.47%     96.53% # Number of insts commited each cycle
system.switch_cpus.commit.committed_per_cycle::7        15321      0.50%     97.03% # Number of insts commited each cycle
system.switch_cpus.commit.committed_per_cycle::8        90922      2.97%    100.00% # Number of insts commited each cycle
system.switch_cpus.commit.committed_per_cycle::overflows            0      0.00%    100.00% # Number of insts commited each cycle
system.switch_cpus.commit.committed_per_cycle::min_value            0                       # Number of insts commited each cycle
system.switch_cpus.commit.committed_per_cycle::max_value            8                       # Number of insts commited each cycle
system.switch_cpus.commit.committed_per_cycle::total      3065866                       # Number of insts commited each cycle
system.switch_cpus.commit.committedInsts      1723500                       # Number of instructions committed
system.switch_cpus.commit.committedOps        1723500                       # Number of ops (including micro ops) committed
system.switch_cpus.commit.swp_count                 0                       # Number of s/w prefetches committed
system.switch_cpus.commit.refs                 559895                       # Number of memory references committed
system.switch_cpus.commit.loads                324454                       # Number of loads committed
system.switch_cpus.commit.membars               13498                       # Number of memory barriers committed
system.switch_cpus.commit.branches             275622                       # Number of branches committed
system.switch_cpus.commit.fp_insts               4419                       # Number of committed floating point instructions.
system.switch_cpus.commit.int_insts           1655553                       # Number of committed integer instructions.
system.switch_cpus.commit.function_calls        25209                       # Number of function calls committed.
system.switch_cpus.commit.op_class_0::No_OpClass        33123      1.92%      1.92% # Class of committed instruction
system.switch_cpus.commit.op_class_0::IntAlu      1082089     62.78%     64.71% # Class of committed instruction
system.switch_cpus.commit.op_class_0::IntMult         2152      0.12%     64.83% # Class of committed instruction
system.switch_cpus.commit.op_class_0::IntDiv            0      0.00%     64.83% # Class of committed instruction
system.switch_cpus.commit.op_class_0::FloatAdd         1305      0.08%     64.91% # Class of committed instruction
system.switch_cpus.commit.op_class_0::FloatCmp            1      0.00%     64.91% # Class of committed instruction
system.switch_cpus.commit.op_class_0::FloatCvt            5      0.00%     64.91% # Class of committed instruction
system.switch_cpus.commit.op_class_0::FloatMult            1      0.00%     64.91% # Class of committed instruction
system.switch_cpus.commit.op_class_0::FloatDiv          246      0.01%     64.92% # Class of committed instruction
system.switch_cpus.commit.op_class_0::FloatSqrt            0      0.00%     64.92% # Class of committed instruction
system.switch_cpus.commit.op_class_0::SimdAdd            0      0.00%     64.92% # Class of committed instruction
system.switch_cpus.commit.op_class_0::SimdAddAcc            0      0.00%     64.92% # Class of committed instruction
system.switch_cpus.commit.op_class_0::SimdAlu            0      0.00%     64.92% # Class of committed instruction
system.switch_cpus.commit.op_class_0::SimdCmp            0      0.00%     64.92% # Class of committed instruction
system.switch_cpus.commit.op_class_0::SimdCvt            0      0.00%     64.92% # Class of committed instruction
system.switch_cpus.commit.op_class_0::SimdMisc            0      0.00%     64.92% # Class of committed instruction
system.switch_cpus.commit.op_class_0::SimdMult            0      0.00%     64.92% # Class of committed instruction
system.switch_cpus.commit.op_class_0::SimdMultAcc            0      0.00%     64.92% # Class of committed instruction
system.switch_cpus.commit.op_class_0::SimdShift            0      0.00%     64.92% # Class of committed instruction
system.switch_cpus.commit.op_class_0::SimdShiftAcc            0      0.00%     64.92% # Class of committed instruction
system.switch_cpus.commit.op_class_0::SimdSqrt            0      0.00%     64.92% # Class of committed instruction
system.switch_cpus.commit.op_class_0::SimdFloatAdd            0      0.00%     64.92% # Class of committed instruction
system.switch_cpus.commit.op_class_0::SimdFloatAlu            0      0.00%     64.92% # Class of committed instruction
system.switch_cpus.commit.op_class_0::SimdFloatCmp            0      0.00%     64.92% # Class of committed instruction
system.switch_cpus.commit.op_class_0::SimdFloatCvt            0      0.00%     64.92% # Class of committed instruction
system.switch_cpus.commit.op_class_0::SimdFloatDiv            0      0.00%     64.92% # Class of committed instruction
system.switch_cpus.commit.op_class_0::SimdFloatMisc            0      0.00%     64.92% # Class of committed instruction
system.switch_cpus.commit.op_class_0::SimdFloatMult            0      0.00%     64.92% # Class of committed instruction
system.switch_cpus.commit.op_class_0::SimdFloatMultAcc            0      0.00%     64.92% # Class of committed instruction
system.switch_cpus.commit.op_class_0::SimdFloatSqrt            0      0.00%     64.92% # Class of committed instruction
system.switch_cpus.commit.op_class_0::MemRead       337952     19.61%     84.53% # Class of committed instruction
system.switch_cpus.commit.op_class_0::MemWrite       235805     13.68%     98.21% # Class of committed instruction
system.switch_cpus.commit.op_class_0::IprAccess        30821      1.79%    100.00% # Class of committed instruction
system.switch_cpus.commit.op_class_0::InstPrefetch            0      0.00%    100.00% # Class of committed instruction
system.switch_cpus.commit.op_class_0::total      1723500                       # Class of committed instruction
system.switch_cpus.commit.bw_lim_events         90922                       # number cycles where commit BW limit reached
system.switch_cpus.rob.rob_reads              5014326                       # The number of ROB reads
system.switch_cpus.rob.rob_writes             4182677                       # The number of ROB writes
system.switch_cpus.timesIdled                    9605                       # Number of times that the entire CPU went into an idle state and unscheduled itself
system.switch_cpus.idleCycles                  724033                       # Total number of cycles that the CPU has spent unscheduled due to idling
system.switch_cpus.committedInsts             1690871                       # Number of Instructions Simulated
system.switch_cpus.committedOps               1690871                       # Number of Ops (including micro ops) Simulated
system.switch_cpus.cpi                       2.275889                       # CPI: Cycles Per Instruction
system.switch_cpus.cpi_total                 2.275889                       # CPI: Total CPI of All Threads
system.switch_cpus.ipc                       0.439389                       # IPC: Instructions Per Cycle
system.switch_cpus.ipc_total                 0.439389                       # IPC: Total IPC of All Threads
system.switch_cpus.int_regfile_reads          2476808                       # number of integer regfile reads
system.switch_cpus.int_regfile_writes         1304099                       # number of integer regfile writes
system.switch_cpus.fp_regfile_reads              3065                       # number of floating regfile reads
system.switch_cpus.fp_regfile_writes             2786                       # number of floating regfile writes
system.switch_cpus.misc_regfile_reads           53004                       # number of misc regfile reads
system.switch_cpus.misc_regfile_writes          35293                       # number of misc regfile writes
system.tol2bus.trans_dist::ReadReq              30458                       # Transaction distribution
system.tol2bus.trans_dist::ReadResp             30459                       # Transaction distribution
system.tol2bus.trans_dist::WriteReq               134                       # Transaction distribution
system.tol2bus.trans_dist::WriteResp              134                       # Transaction distribution
system.tol2bus.trans_dist::Writeback            15727                       # Transaction distribution
system.tol2bus.trans_dist::UpgradeReq               3                       # Transaction distribution
system.tol2bus.trans_dist::SCUpgradeReq             3                       # Transaction distribution
system.tol2bus.trans_dist::UpgradeResp              6                       # Transaction distribution
system.tol2bus.trans_dist::ReadExReq             9930                       # Transaction distribution
system.tol2bus.trans_dist::ReadExResp            9930                       # Transaction distribution
system.tol2bus.pkt_count_system.cpu.icache.mem_side::system.l2.cpu_side        29160                       # Packet count per connected master and slave (bytes)
system.tol2bus.pkt_count_system.cpu.dcache.mem_side::system.l2.cpu_side        67619                       # Packet count per connected master and slave (bytes)
system.tol2bus.pkt_count::total                 96779                       # Packet count per connected master and slave (bytes)
system.tol2bus.pkt_size_system.cpu.icache.mem_side::system.l2.cpu_side       932992                       # Cumulative packet size per connected master and slave (bytes)
system.tol2bus.pkt_size_system.cpu.dcache.mem_side::system.l2.cpu_side      2639472                       # Cumulative packet size per connected master and slave (bytes)
system.tol2bus.pkt_size::total                3572464                       # Cumulative packet size per connected master and slave (bytes)
system.tol2bus.snoops                               5                       # Total snoops (count)
system.tol2bus.snoop_fanout::samples            56255                       # Request fanout histogram
system.tol2bus.snoop_fanout::mean                   1                       # Request fanout histogram
system.tol2bus.snoop_fanout::stdev                  0                       # Request fanout histogram
system.tol2bus.snoop_fanout::underflows             0      0.00%      0.00% # Request fanout histogram
system.tol2bus.snoop_fanout::0                      0      0.00%      0.00% # Request fanout histogram
system.tol2bus.snoop_fanout::1                  56255    100.00%    100.00% # Request fanout histogram
system.tol2bus.snoop_fanout::2                      0      0.00%    100.00% # Request fanout histogram
system.tol2bus.snoop_fanout::overflows              0      0.00%    100.00% # Request fanout histogram
system.tol2bus.snoop_fanout::min_value              1                       # Request fanout histogram
system.tol2bus.snoop_fanout::max_value              1                       # Request fanout histogram
system.tol2bus.snoop_fanout::total              56255                       # Request fanout histogram
system.tol2bus.reqLayer0.occupancy           43921500                       # Layer occupancy (ticks)
system.tol2bus.reqLayer0.utilization              2.3                       # Layer utilization (%)
system.tol2bus.respLayer0.occupancy          23308742                       # Layer occupancy (ticks)
system.tol2bus.respLayer0.utilization             1.2                       # Layer utilization (%)
system.tol2bus.respLayer1.occupancy          41466249                       # Layer occupancy (ticks)
system.tol2bus.respLayer1.utilization             2.2                       # Layer utilization (%)
system.tsunami.ethernet.descDMAReads                0                       # Number of descriptors the device read w/ DMA
system.tsunami.ethernet.descDMAWrites               0                       # Number of descriptors the device wrote w/ DMA
system.tsunami.ethernet.descDmaReadBytes            0                       # number of descriptor bytes read w/ DMA
system.tsunami.ethernet.descDmaWriteBytes            0                       # number of descriptor bytes write w/ DMA
system.tsunami.ethernet.postedSwi                   0                       # number of software interrupts posted to CPU
system.tsunami.ethernet.coalescedSwi              nan                       # average number of Swi's coalesced into each post
system.tsunami.ethernet.totalSwi                    0                       # total number of Swi written to ISR
system.tsunami.ethernet.postedRxIdle                0                       # number of rxIdle interrupts posted to CPU
system.tsunami.ethernet.coalescedRxIdle           nan                       # average number of RxIdle's coalesced into each post
system.tsunami.ethernet.totalRxIdle                 0                       # total number of RxIdle written to ISR
system.tsunami.ethernet.postedRxOk                  0                       # number of RxOk interrupts posted to CPU
system.tsunami.ethernet.coalescedRxOk             nan                       # average number of RxOk's coalesced into each post
system.tsunami.ethernet.totalRxOk                   0                       # total number of RxOk written to ISR
system.tsunami.ethernet.postedRxDesc                0                       # number of RxDesc interrupts posted to CPU
system.tsunami.ethernet.coalescedRxDesc           nan                       # average number of RxDesc's coalesced into each post
system.tsunami.ethernet.totalRxDesc                 0                       # total number of RxDesc written to ISR
system.tsunami.ethernet.postedTxOk                  0                       # number of TxOk interrupts posted to CPU
system.tsunami.ethernet.coalescedTxOk             nan                       # average number of TxOk's coalesced into each post
system.tsunami.ethernet.totalTxOk                   0                       # total number of TxOk written to ISR
system.tsunami.ethernet.postedTxIdle                0                       # number of TxIdle interrupts posted to CPU
system.tsunami.ethernet.coalescedTxIdle           nan                       # average number of TxIdle's coalesced into each post
system.tsunami.ethernet.totalTxIdle                 0                       # total number of TxIdle written to ISR
system.tsunami.ethernet.postedTxDesc                0                       # number of TxDesc interrupts posted to CPU
system.tsunami.ethernet.coalescedTxDesc           nan                       # average number of TxDesc's coalesced into each post
system.tsunami.ethernet.totalTxDesc                 0                       # total number of TxDesc written to ISR
system.tsunami.ethernet.postedRxOrn                 0                       # number of RxOrn posted to CPU
system.tsunami.ethernet.coalescedRxOrn            nan                       # average number of RxOrn's coalesced into each post
system.tsunami.ethernet.totalRxOrn                  0                       # total number of RxOrn written to ISR
system.tsunami.ethernet.coalescedTotal            nan                       # average number of interrupts coalesced into each post
system.tsunami.ethernet.postedInterrupts            0                       # number of posts to CPU
system.tsunami.ethernet.droppedPackets              0                       # number of packets dropped
system.switch_cpus.kern.inst.arm                    0                       # number of arm instructions executed
system.switch_cpus.kern.inst.quiesce                0                       # number of quiesce instructions executed
system.switch_cpus.kern.inst.hwrei                  0                       # number of hwrei instructions executed
system.switch_cpus.kern.mode_switch::kernel            0                       # number of protection mode switches
system.switch_cpus.kern.mode_switch::user            0                       # number of protection mode switches
system.switch_cpus.kern.mode_switch::idle            0                       # number of protection mode switches
system.switch_cpus.kern.mode_good::kernel            0                      
system.switch_cpus.kern.mode_good::user             0                      
system.switch_cpus.kern.mode_good::idle             0                      
system.switch_cpus.kern.mode_switch_good::kernel          nan                       # fraction of useful protection mode switches
system.switch_cpus.kern.mode_switch_good::user          nan                       # fraction of useful protection mode switches
system.switch_cpus.kern.mode_switch_good::idle          nan                       # fraction of useful protection mode switches
system.switch_cpus.kern.mode_switch_good::total          nan                       # fraction of useful protection mode switches
system.switch_cpus.kern.mode_ticks::kernel            0                       # number of ticks spent at the given mode
system.switch_cpus.kern.mode_ticks::user            0                       # number of ticks spent at the given mode
system.switch_cpus.kern.mode_ticks::idle            0                       # number of ticks spent at the given mode
system.switch_cpus.kern.swap_context                0                       # number of times the context was actually changed

---------- End Simulation Statistics   ----------
