
---------- Begin Simulation Statistics ----------
sim_seconds                                  0.000781                       # Number of seconds simulated
sim_ticks                                   781495500                       # Number of ticks simulated
final_tick                               2255220846500                       # Number of ticks from beginning of simulation (restored from checkpoints and never reset)
sim_freq                                 1000000000000                       # Frequency of simulated ticks
host_inst_rate                               36692460                       # Simulator instruction rate (inst/s)
host_op_rate                                 36692362                       # Simulator op (including micro ops) rate (op/s)
host_tick_rate                              292653135                       # Simulator tick rate (ticks/s)
host_mem_usage                                 728976                       # Number of bytes of host memory used
host_seconds                                     2.67                       # Real time elapsed on the host
sim_insts                                    97982352                       # Number of instructions simulated
sim_ops                                      97982352                       # Number of ops (including micro ops) simulated
system.voltage_domain.voltage                       1                       # Voltage in Volts
system.clk_domain.clock                          1000                       # Clock period in ticks
system.mem_ctrls.bytes_read::switch_cpus.inst       311936                       # Number of bytes read from this memory
system.mem_ctrls.bytes_read::switch_cpus.data       176000                       # Number of bytes read from this memory
system.mem_ctrls.bytes_read::total             487936                       # Number of bytes read from this memory
system.mem_ctrls.bytes_inst_read::switch_cpus.inst       311936                       # Number of instructions bytes read from this memory
system.mem_ctrls.bytes_inst_read::total        311936                       # Number of instructions bytes read from this memory
system.mem_ctrls.bytes_written::writebacks        62208                       # Number of bytes written to this memory
system.mem_ctrls.bytes_written::total           62208                       # Number of bytes written to this memory
system.mem_ctrls.num_reads::switch_cpus.inst         4874                       # Number of read requests responded to by this memory
system.mem_ctrls.num_reads::switch_cpus.data         2750                       # Number of read requests responded to by this memory
system.mem_ctrls.num_reads::total                7624                       # Number of read requests responded to by this memory
system.mem_ctrls.num_writes::writebacks           972                       # Number of write requests responded to by this memory
system.mem_ctrls.num_writes::total                972                       # Number of write requests responded to by this memory
system.mem_ctrls.bw_read::switch_cpus.inst    399152650                       # Total read bandwidth from this memory (bytes/s)
system.mem_ctrls.bw_read::switch_cpus.data    225209230                       # Total read bandwidth from this memory (bytes/s)
system.mem_ctrls.bw_read::total             624361881                       # Total read bandwidth from this memory (bytes/s)
system.mem_ctrls.bw_inst_read::switch_cpus.inst    399152650                       # Instruction read bandwidth from this memory (bytes/s)
system.mem_ctrls.bw_inst_read::total        399152650                       # Instruction read bandwidth from this memory (bytes/s)
system.mem_ctrls.bw_write::writebacks        79601226                       # Write bandwidth from this memory (bytes/s)
system.mem_ctrls.bw_write::total             79601226                       # Write bandwidth from this memory (bytes/s)
system.mem_ctrls.bw_total::writebacks        79601226                       # Total bandwidth to/from this memory (bytes/s)
system.mem_ctrls.bw_total::switch_cpus.inst    399152650                       # Total bandwidth to/from this memory (bytes/s)
system.mem_ctrls.bw_total::switch_cpus.data    225209230                       # Total bandwidth to/from this memory (bytes/s)
system.mem_ctrls.bw_total::total            703963107                       # Total bandwidth to/from this memory (bytes/s)
system.mem_ctrls.readReqs                        7625                       # Number of read requests accepted
system.mem_ctrls.writeReqs                        972                       # Number of write requests accepted
system.mem_ctrls.readBursts                      7625                       # Number of DRAM read bursts, including those serviced by the write queue
system.mem_ctrls.writeBursts                      972                       # Number of DRAM write bursts, including those merged in the write queue
system.mem_ctrls.bytesReadDRAM                 484608                       # Total number of bytes read from DRAM
system.mem_ctrls.bytesReadWrQ                    3392                       # Total number of bytes read from write queue
system.mem_ctrls.bytesWritten                   60288                       # Total number of bytes written to DRAM
system.mem_ctrls.bytesReadSys                  488000                       # Total read bytes from the system interface side
system.mem_ctrls.bytesWrittenSys                62208                       # Total written bytes from the system interface side
system.mem_ctrls.servicedByWrQ                     53                       # Number of DRAM read bursts serviced by the write queue
system.mem_ctrls.mergedWrBursts                     1                       # Number of DRAM write bursts merged with an existing one
system.mem_ctrls.neitherReadNorWriteReqs            5                       # Number of requests that are neither read nor write
system.mem_ctrls.perBankRdBursts::0               845                       # Per bank write bursts
system.mem_ctrls.perBankRdBursts::1               359                       # Per bank write bursts
system.mem_ctrls.perBankRdBursts::2               388                       # Per bank write bursts
system.mem_ctrls.perBankRdBursts::3               268                       # Per bank write bursts
system.mem_ctrls.perBankRdBursts::4               332                       # Per bank write bursts
system.mem_ctrls.perBankRdBursts::5               369                       # Per bank write bursts
system.mem_ctrls.perBankRdBursts::6               352                       # Per bank write bursts
system.mem_ctrls.perBankRdBursts::7               450                       # Per bank write bursts
system.mem_ctrls.perBankRdBursts::8               654                       # Per bank write bursts
system.mem_ctrls.perBankRdBursts::9               436                       # Per bank write bursts
system.mem_ctrls.perBankRdBursts::10              550                       # Per bank write bursts
system.mem_ctrls.perBankRdBursts::11              644                       # Per bank write bursts
system.mem_ctrls.perBankRdBursts::12              603                       # Per bank write bursts
system.mem_ctrls.perBankRdBursts::13              736                       # Per bank write bursts
system.mem_ctrls.perBankRdBursts::14              262                       # Per bank write bursts
system.mem_ctrls.perBankRdBursts::15              324                       # Per bank write bursts
system.mem_ctrls.perBankWrBursts::0               144                       # Per bank write bursts
system.mem_ctrls.perBankWrBursts::1                47                       # Per bank write bursts
system.mem_ctrls.perBankWrBursts::2                32                       # Per bank write bursts
system.mem_ctrls.perBankWrBursts::3                52                       # Per bank write bursts
system.mem_ctrls.perBankWrBursts::4                78                       # Per bank write bursts
system.mem_ctrls.perBankWrBursts::5                78                       # Per bank write bursts
system.mem_ctrls.perBankWrBursts::6                96                       # Per bank write bursts
system.mem_ctrls.perBankWrBursts::7                35                       # Per bank write bursts
system.mem_ctrls.perBankWrBursts::8                49                       # Per bank write bursts
system.mem_ctrls.perBankWrBursts::9                27                       # Per bank write bursts
system.mem_ctrls.perBankWrBursts::10               20                       # Per bank write bursts
system.mem_ctrls.perBankWrBursts::11               78                       # Per bank write bursts
system.mem_ctrls.perBankWrBursts::12               43                       # Per bank write bursts
system.mem_ctrls.perBankWrBursts::13               79                       # Per bank write bursts
system.mem_ctrls.perBankWrBursts::14               48                       # Per bank write bursts
system.mem_ctrls.perBankWrBursts::15               36                       # Per bank write bursts
system.mem_ctrls.numRdRetry                         0                       # Number of times read queue was full causing retry
system.mem_ctrls.numWrRetry                         0                       # Number of times write queue was full causing retry
system.mem_ctrls.totGap                     781451500                       # Total gap between requests
system.mem_ctrls.readPktSize::0                     0                       # Read request sizes (log2)
system.mem_ctrls.readPktSize::1                     0                       # Read request sizes (log2)
system.mem_ctrls.readPktSize::2                     0                       # Read request sizes (log2)
system.mem_ctrls.readPktSize::3                     0                       # Read request sizes (log2)
system.mem_ctrls.readPktSize::4                     0                       # Read request sizes (log2)
system.mem_ctrls.readPktSize::5                     0                       # Read request sizes (log2)
system.mem_ctrls.readPktSize::6                  7625                       # Read request sizes (log2)
system.mem_ctrls.writePktSize::0                    0                       # Write request sizes (log2)
system.mem_ctrls.writePktSize::1                    0                       # Write request sizes (log2)
system.mem_ctrls.writePktSize::2                    0                       # Write request sizes (log2)
system.mem_ctrls.writePktSize::3                    0                       # Write request sizes (log2)
system.mem_ctrls.writePktSize::4                    0                       # Write request sizes (log2)
system.mem_ctrls.writePktSize::5                    0                       # Write request sizes (log2)
system.mem_ctrls.writePktSize::6                  972                       # Write request sizes (log2)
system.mem_ctrls.rdQLenPdf::0                    5383                       # What read queue length does an incoming req see
system.mem_ctrls.rdQLenPdf::1                    1699                       # What read queue length does an incoming req see
system.mem_ctrls.rdQLenPdf::2                     388                       # What read queue length does an incoming req see
system.mem_ctrls.rdQLenPdf::3                      93                       # What read queue length does an incoming req see
system.mem_ctrls.rdQLenPdf::4                       8                       # What read queue length does an incoming req see
system.mem_ctrls.rdQLenPdf::5                       1                       # What read queue length does an incoming req see
system.mem_ctrls.rdQLenPdf::6                       0                       # What read queue length does an incoming req see
system.mem_ctrls.rdQLenPdf::7                       0                       # What read queue length does an incoming req see
system.mem_ctrls.rdQLenPdf::8                       0                       # What read queue length does an incoming req see
system.mem_ctrls.rdQLenPdf::9                       0                       # What read queue length does an incoming req see
system.mem_ctrls.rdQLenPdf::10                      0                       # What read queue length does an incoming req see
system.mem_ctrls.rdQLenPdf::11                      0                       # What read queue length does an incoming req see
system.mem_ctrls.rdQLenPdf::12                      0                       # What read queue length does an incoming req see
system.mem_ctrls.rdQLenPdf::13                      0                       # What read queue length does an incoming req see
system.mem_ctrls.rdQLenPdf::14                      0                       # What read queue length does an incoming req see
system.mem_ctrls.rdQLenPdf::15                      0                       # What read queue length does an incoming req see
system.mem_ctrls.rdQLenPdf::16                      0                       # What read queue length does an incoming req see
system.mem_ctrls.rdQLenPdf::17                      0                       # What read queue length does an incoming req see
system.mem_ctrls.rdQLenPdf::18                      0                       # What read queue length does an incoming req see
system.mem_ctrls.rdQLenPdf::19                      0                       # What read queue length does an incoming req see
system.mem_ctrls.rdQLenPdf::20                      0                       # What read queue length does an incoming req see
system.mem_ctrls.rdQLenPdf::21                      0                       # What read queue length does an incoming req see
system.mem_ctrls.rdQLenPdf::22                      0                       # What read queue length does an incoming req see
system.mem_ctrls.rdQLenPdf::23                      0                       # What read queue length does an incoming req see
system.mem_ctrls.rdQLenPdf::24                      0                       # What read queue length does an incoming req see
system.mem_ctrls.rdQLenPdf::25                      0                       # What read queue length does an incoming req see
system.mem_ctrls.rdQLenPdf::26                      0                       # What read queue length does an incoming req see
system.mem_ctrls.rdQLenPdf::27                      0                       # What read queue length does an incoming req see
system.mem_ctrls.rdQLenPdf::28                      0                       # What read queue length does an incoming req see
system.mem_ctrls.rdQLenPdf::29                      0                       # What read queue length does an incoming req see
system.mem_ctrls.rdQLenPdf::30                      0                       # What read queue length does an incoming req see
system.mem_ctrls.rdQLenPdf::31                      0                       # What read queue length does an incoming req see
system.mem_ctrls.wrQLenPdf::0                       1                       # What write queue length does an incoming req see
system.mem_ctrls.wrQLenPdf::1                       1                       # What write queue length does an incoming req see
system.mem_ctrls.wrQLenPdf::2                       1                       # What write queue length does an incoming req see
system.mem_ctrls.wrQLenPdf::3                       1                       # What write queue length does an incoming req see
system.mem_ctrls.wrQLenPdf::4                       1                       # What write queue length does an incoming req see
system.mem_ctrls.wrQLenPdf::5                       1                       # What write queue length does an incoming req see
system.mem_ctrls.wrQLenPdf::6                       1                       # What write queue length does an incoming req see
system.mem_ctrls.wrQLenPdf::7                       1                       # What write queue length does an incoming req see
system.mem_ctrls.wrQLenPdf::8                       1                       # What write queue length does an incoming req see
system.mem_ctrls.wrQLenPdf::9                       1                       # What write queue length does an incoming req see
system.mem_ctrls.wrQLenPdf::10                      1                       # What write queue length does an incoming req see
system.mem_ctrls.wrQLenPdf::11                      1                       # What write queue length does an incoming req see
system.mem_ctrls.wrQLenPdf::12                      1                       # What write queue length does an incoming req see
system.mem_ctrls.wrQLenPdf::13                      1                       # What write queue length does an incoming req see
system.mem_ctrls.wrQLenPdf::14                      1                       # What write queue length does an incoming req see
system.mem_ctrls.wrQLenPdf::15                     20                       # What write queue length does an incoming req see
system.mem_ctrls.wrQLenPdf::16                     22                       # What write queue length does an incoming req see
system.mem_ctrls.wrQLenPdf::17                     49                       # What write queue length does an incoming req see
system.mem_ctrls.wrQLenPdf::18                     57                       # What write queue length does an incoming req see
system.mem_ctrls.wrQLenPdf::19                     57                       # What write queue length does an incoming req see
system.mem_ctrls.wrQLenPdf::20                     56                       # What write queue length does an incoming req see
system.mem_ctrls.wrQLenPdf::21                     57                       # What write queue length does an incoming req see
system.mem_ctrls.wrQLenPdf::22                     58                       # What write queue length does an incoming req see
system.mem_ctrls.wrQLenPdf::23                     58                       # What write queue length does an incoming req see
system.mem_ctrls.wrQLenPdf::24                     57                       # What write queue length does an incoming req see
system.mem_ctrls.wrQLenPdf::25                     58                       # What write queue length does an incoming req see
system.mem_ctrls.wrQLenPdf::26                     60                       # What write queue length does an incoming req see
system.mem_ctrls.wrQLenPdf::27                     60                       # What write queue length does an incoming req see
system.mem_ctrls.wrQLenPdf::28                     57                       # What write queue length does an incoming req see
system.mem_ctrls.wrQLenPdf::29                     61                       # What write queue length does an incoming req see
system.mem_ctrls.wrQLenPdf::30                     56                       # What write queue length does an incoming req see
system.mem_ctrls.wrQLenPdf::31                     57                       # What write queue length does an incoming req see
system.mem_ctrls.wrQLenPdf::32                     56                       # What write queue length does an incoming req see
system.mem_ctrls.wrQLenPdf::33                      0                       # What write queue length does an incoming req see
system.mem_ctrls.wrQLenPdf::34                      0                       # What write queue length does an incoming req see
system.mem_ctrls.wrQLenPdf::35                      0                       # What write queue length does an incoming req see
system.mem_ctrls.wrQLenPdf::36                      0                       # What write queue length does an incoming req see
system.mem_ctrls.wrQLenPdf::37                      0                       # What write queue length does an incoming req see
system.mem_ctrls.wrQLenPdf::38                      0                       # What write queue length does an incoming req see
system.mem_ctrls.wrQLenPdf::39                      0                       # What write queue length does an incoming req see
system.mem_ctrls.wrQLenPdf::40                      0                       # What write queue length does an incoming req see
system.mem_ctrls.wrQLenPdf::41                      0                       # What write queue length does an incoming req see
system.mem_ctrls.wrQLenPdf::42                      0                       # What write queue length does an incoming req see
system.mem_ctrls.wrQLenPdf::43                      0                       # What write queue length does an incoming req see
system.mem_ctrls.wrQLenPdf::44                      0                       # What write queue length does an incoming req see
system.mem_ctrls.wrQLenPdf::45                      0                       # What write queue length does an incoming req see
system.mem_ctrls.wrQLenPdf::46                      0                       # What write queue length does an incoming req see
system.mem_ctrls.wrQLenPdf::47                      0                       # What write queue length does an incoming req see
system.mem_ctrls.wrQLenPdf::48                      0                       # What write queue length does an incoming req see
system.mem_ctrls.wrQLenPdf::49                      0                       # What write queue length does an incoming req see
system.mem_ctrls.wrQLenPdf::50                      0                       # What write queue length does an incoming req see
system.mem_ctrls.wrQLenPdf::51                      0                       # What write queue length does an incoming req see
system.mem_ctrls.wrQLenPdf::52                      0                       # What write queue length does an incoming req see
system.mem_ctrls.wrQLenPdf::53                      0                       # What write queue length does an incoming req see
system.mem_ctrls.wrQLenPdf::54                      0                       # What write queue length does an incoming req see
system.mem_ctrls.wrQLenPdf::55                      0                       # What write queue length does an incoming req see
system.mem_ctrls.wrQLenPdf::56                      0                       # What write queue length does an incoming req see
system.mem_ctrls.wrQLenPdf::57                      0                       # What write queue length does an incoming req see
system.mem_ctrls.wrQLenPdf::58                      0                       # What write queue length does an incoming req see
system.mem_ctrls.wrQLenPdf::59                      0                       # What write queue length does an incoming req see
system.mem_ctrls.wrQLenPdf::60                      0                       # What write queue length does an incoming req see
system.mem_ctrls.wrQLenPdf::61                      0                       # What write queue length does an incoming req see
system.mem_ctrls.wrQLenPdf::62                      0                       # What write queue length does an incoming req see
system.mem_ctrls.wrQLenPdf::63                      0                       # What write queue length does an incoming req see
system.mem_ctrls.bytesPerActivate::samples         2873                       # Bytes accessed per row activation
system.mem_ctrls.bytesPerActivate::mean    188.925861                       # Bytes accessed per row activation
system.mem_ctrls.bytesPerActivate::gmean   127.363947                       # Bytes accessed per row activation
system.mem_ctrls.bytesPerActivate::stdev   213.006376                       # Bytes accessed per row activation
system.mem_ctrls.bytesPerActivate::0-127         1376     47.89%     47.89% # Bytes accessed per row activation
system.mem_ctrls.bytesPerActivate::128-255          831     28.92%     76.82% # Bytes accessed per row activation
system.mem_ctrls.bytesPerActivate::256-383          283      9.85%     86.67% # Bytes accessed per row activation
system.mem_ctrls.bytesPerActivate::384-511          138      4.80%     91.47% # Bytes accessed per row activation
system.mem_ctrls.bytesPerActivate::512-639           72      2.51%     93.98% # Bytes accessed per row activation
system.mem_ctrls.bytesPerActivate::640-767           42      1.46%     95.44% # Bytes accessed per row activation
system.mem_ctrls.bytesPerActivate::768-895           31      1.08%     96.52% # Bytes accessed per row activation
system.mem_ctrls.bytesPerActivate::896-1023           21      0.73%     97.25% # Bytes accessed per row activation
system.mem_ctrls.bytesPerActivate::1024-1151           79      2.75%    100.00% # Bytes accessed per row activation
system.mem_ctrls.bytesPerActivate::total         2873                       # Bytes accessed per row activation
system.mem_ctrls.rdPerTurnAround::samples           56                       # Reads before turning the bus around for writes
system.mem_ctrls.rdPerTurnAround::mean     134.089286                       # Reads before turning the bus around for writes
system.mem_ctrls.rdPerTurnAround::gmean    121.013598                       # Reads before turning the bus around for writes
system.mem_ctrls.rdPerTurnAround::stdev     57.842192                       # Reads before turning the bus around for writes
system.mem_ctrls.rdPerTurnAround::16-31             1      1.79%      1.79% # Reads before turning the bus around for writes
system.mem_ctrls.rdPerTurnAround::32-47             3      5.36%      7.14% # Reads before turning the bus around for writes
system.mem_ctrls.rdPerTurnAround::64-79             6     10.71%     17.86% # Reads before turning the bus around for writes
system.mem_ctrls.rdPerTurnAround::80-95             4      7.14%     25.00% # Reads before turning the bus around for writes
system.mem_ctrls.rdPerTurnAround::96-111            5      8.93%     33.93% # Reads before turning the bus around for writes
system.mem_ctrls.rdPerTurnAround::112-127            8     14.29%     48.21% # Reads before turning the bus around for writes
system.mem_ctrls.rdPerTurnAround::128-143            9     16.07%     64.29% # Reads before turning the bus around for writes
system.mem_ctrls.rdPerTurnAround::144-159            5      8.93%     73.21% # Reads before turning the bus around for writes
system.mem_ctrls.rdPerTurnAround::160-175            6     10.71%     83.93% # Reads before turning the bus around for writes
system.mem_ctrls.rdPerTurnAround::176-191            2      3.57%     87.50% # Reads before turning the bus around for writes
system.mem_ctrls.rdPerTurnAround::192-207            2      3.57%     91.07% # Reads before turning the bus around for writes
system.mem_ctrls.rdPerTurnAround::208-223            1      1.79%     92.86% # Reads before turning the bus around for writes
system.mem_ctrls.rdPerTurnAround::224-239            2      3.57%     96.43% # Reads before turning the bus around for writes
system.mem_ctrls.rdPerTurnAround::272-287            1      1.79%     98.21% # Reads before turning the bus around for writes
system.mem_ctrls.rdPerTurnAround::320-335            1      1.79%    100.00% # Reads before turning the bus around for writes
system.mem_ctrls.rdPerTurnAround::total            56                       # Reads before turning the bus around for writes
system.mem_ctrls.wrPerTurnAround::samples           56                       # Writes before turning the bus around for reads
system.mem_ctrls.wrPerTurnAround::mean      16.821429                       # Writes before turning the bus around for reads
system.mem_ctrls.wrPerTurnAround::gmean     16.785391                       # Writes before turning the bus around for reads
system.mem_ctrls.wrPerTurnAround::stdev      1.129878                       # Writes before turning the bus around for reads
system.mem_ctrls.wrPerTurnAround::16               35     62.50%     62.50% # Writes before turning the bus around for reads
system.mem_ctrls.wrPerTurnAround::17                2      3.57%     66.07% # Writes before turning the bus around for reads
system.mem_ctrls.wrPerTurnAround::18               13     23.21%     89.29% # Writes before turning the bus around for reads
system.mem_ctrls.wrPerTurnAround::19                6     10.71%    100.00% # Writes before turning the bus around for reads
system.mem_ctrls.wrPerTurnAround::total            56                       # Writes before turning the bus around for reads
system.mem_ctrls.totQLat                     93352750                       # Total ticks spent queuing
system.mem_ctrls.totMemAccLat               235327750                       # Total ticks spent from burst creation until serviced by the DRAM
system.mem_ctrls.totBusLat                   37860000                       # Total ticks spent in databus transfers
system.mem_ctrls.avgQLat                     12328.68                       # Average queueing delay per DRAM burst
system.mem_ctrls.avgBusLat                    5000.00                       # Average bus latency per DRAM burst
system.mem_ctrls.avgMemAccLat                31078.68                       # Average memory access latency per DRAM burst
system.mem_ctrls.avgRdBW                       620.10                       # Average DRAM read bandwidth in MiByte/s
system.mem_ctrls.avgWrBW                        77.14                       # Average achieved write bandwidth in MiByte/s
system.mem_ctrls.avgRdBWSys                    624.44                       # Average system read bandwidth in MiByte/s
system.mem_ctrls.avgWrBWSys                     79.60                       # Average system write bandwidth in MiByte/s
system.mem_ctrls.peakBW                      12800.00                       # Theoretical peak bandwidth in MiByte/s
system.mem_ctrls.busUtil                         5.45                       # Data bus utilization in percentage
system.mem_ctrls.busUtilRead                     4.84                       # Data bus utilization in percentage for reads
system.mem_ctrls.busUtilWrite                    0.60                       # Data bus utilization in percentage for writes
system.mem_ctrls.avgRdQLen                       1.29                       # Average read queue length when enqueuing
system.mem_ctrls.avgWrQLen                      24.74                       # Average write queue length when enqueuing
system.mem_ctrls.readRowHits                     5202                       # Number of row buffer hits during reads
system.mem_ctrls.writeRowHits                     432                       # Number of row buffer hits during writes
system.mem_ctrls.readRowHitRate                 68.70                       # Row buffer hit rate for reads
system.mem_ctrls.writeRowHitRate                44.49                       # Row buffer hit rate for writes
system.mem_ctrls.avgGap                      90898.16                       # Average gap between requests
system.mem_ctrls.pageHitRate                    65.95                       # Row buffer hit rate, read and write combined
system.mem_ctrls_0.actEnergy                  9646560                       # Energy for activate commands per rank (pJ)
system.mem_ctrls_0.preEnergy                  5263500                       # Energy for precharge commands per rank (pJ)
system.mem_ctrls_0.readEnergy                26130000                       # Energy for read commands per rank (pJ)
system.mem_ctrls_0.writeEnergy                3641760                       # Energy for write commands per rank (pJ)
system.mem_ctrls_0.refreshEnergy             50856000                       # Energy for refresh commands per rank (pJ)
system.mem_ctrls_0.actBackEnergy            482418360                       # Energy for active background per rank (pJ)
system.mem_ctrls_0.preBackEnergy             44157000                       # Energy for precharge background per rank (pJ)
system.mem_ctrls_0.totalEnergy              622113180                       # Total energy per rank (pJ)
system.mem_ctrls_0.averagePower            798.722764                       # Core power per rank (mW)
system.mem_ctrls_0.memoryStateTime::IDLE     71108500                       # Time in different power states
system.mem_ctrls_0.memoryStateTime::REF      26000000                       # Time in different power states
system.mem_ctrls_0.memoryStateTime::PRE_PDN            0                       # Time in different power states
system.mem_ctrls_0.memoryStateTime::ACT     682162000                       # Time in different power states
system.mem_ctrls_0.memoryStateTime::ACT_PDN            0                       # Time in different power states
system.mem_ctrls_1.actEnergy                 12073320                       # Energy for activate commands per rank (pJ)
system.mem_ctrls_1.preEnergy                  6587625                       # Energy for precharge commands per rank (pJ)
system.mem_ctrls_1.readEnergy                32674200                       # Energy for read commands per rank (pJ)
system.mem_ctrls_1.writeEnergy                2462400                       # Energy for write commands per rank (pJ)
system.mem_ctrls_1.refreshEnergy             50856000                       # Energy for refresh commands per rank (pJ)
system.mem_ctrls_1.actBackEnergy            502454430                       # Energy for active background per rank (pJ)
system.mem_ctrls_1.preBackEnergy             26581500                       # Energy for precharge background per rank (pJ)
system.mem_ctrls_1.totalEnergy              633689475                       # Total energy per rank (pJ)
system.mem_ctrls_1.averagePower            813.585414                       # Core power per rank (mW)
system.mem_ctrls_1.memoryStateTime::IDLE     41426000                       # Time in different power states
system.mem_ctrls_1.memoryStateTime::REF      26000000                       # Time in different power states
system.mem_ctrls_1.memoryStateTime::PRE_PDN            0                       # Time in different power states
system.mem_ctrls_1.memoryStateTime::ACT     711472750                       # Time in different power states
system.mem_ctrls_1.memoryStateTime::ACT_PDN            0                       # Time in different power states
system.cpu_voltage_domain.voltage                   1                       # Voltage in Volts
system.cpu_clk_domain.clock                       500                       # Clock period in ticks
system.cpu.dtb.fetch_hits                           0                       # ITB hits
system.cpu.dtb.fetch_misses                         0                       # ITB misses
system.cpu.dtb.fetch_acv                            0                       # ITB acv
system.cpu.dtb.fetch_accesses                       0                       # ITB accesses
system.cpu.dtb.read_hits                            0                       # DTB read hits
system.cpu.dtb.read_misses                          0                       # DTB read misses
system.cpu.dtb.read_acv                             0                       # DTB read access violations
system.cpu.dtb.read_accesses                        0                       # DTB read accesses
system.cpu.dtb.write_hits                           0                       # DTB write hits
system.cpu.dtb.write_misses                         0                       # DTB write misses
system.cpu.dtb.write_acv                            0                       # DTB write access violations
system.cpu.dtb.write_accesses                       0                       # DTB write accesses
system.cpu.dtb.data_hits                            0                       # DTB hits
system.cpu.dtb.data_misses                          0                       # DTB misses
system.cpu.dtb.data_acv                             0                       # DTB access violations
system.cpu.dtb.data_accesses                        0                       # DTB accesses
system.cpu.itb.fetch_hits                           0                       # ITB hits
system.cpu.itb.fetch_misses                         0                       # ITB misses
system.cpu.itb.fetch_acv                            0                       # ITB acv
system.cpu.itb.fetch_accesses                       0                       # ITB accesses
system.cpu.itb.read_hits                            0                       # DTB read hits
system.cpu.itb.read_misses                          0                       # DTB read misses
system.cpu.itb.read_acv                             0                       # DTB read access violations
system.cpu.itb.read_accesses                        0                       # DTB read accesses
system.cpu.itb.write_hits                           0                       # DTB write hits
system.cpu.itb.write_misses                         0                       # DTB write misses
system.cpu.itb.write_acv                            0                       # DTB write access violations
system.cpu.itb.write_accesses                       0                       # DTB write accesses
system.cpu.itb.data_hits                            0                       # DTB hits
system.cpu.itb.data_misses                          0                       # DTB misses
system.cpu.itb.data_acv                             0                       # DTB access violations
system.cpu.itb.data_accesses                        0                       # DTB accesses
system.cpu.numCycles                                0                       # number of cpu cycles simulated
system.cpu.numWorkItemsStarted                      0                       # number of work items this cpu started
system.cpu.numWorkItemsCompleted                    0                       # number of work items this cpu completed
system.cpu.committedInsts                           0                       # Number of instructions committed
system.cpu.committedOps                             0                       # Number of ops (including micro ops) committed
system.cpu.num_int_alu_accesses                     0                       # Number of integer alu accesses
system.cpu.num_fp_alu_accesses                      0                       # Number of float alu accesses
system.cpu.num_func_calls                           0                       # number of times a function call or return occured
system.cpu.num_conditional_control_insts            0                       # number of instructions that are conditional controls
system.cpu.num_int_insts                            0                       # number of integer instructions
system.cpu.num_fp_insts                             0                       # number of float instructions
system.cpu.num_int_register_reads                   0                       # number of times the integer registers were read
system.cpu.num_int_register_writes                  0                       # number of times the integer registers were written
system.cpu.num_fp_register_reads                    0                       # number of times the floating registers were read
system.cpu.num_fp_register_writes                   0                       # number of times the floating registers were written
system.cpu.num_mem_refs                             0                       # number of memory refs
system.cpu.num_load_insts                           0                       # Number of load instructions
system.cpu.num_store_insts                          0                       # Number of store instructions
system.cpu.num_idle_cycles                          0                       # Number of idle cycles
system.cpu.num_busy_cycles                          0                       # Number of busy cycles
system.cpu.not_idle_fraction                        1                       # Percentage of non-idle cycles
system.cpu.idle_fraction                            0                       # Percentage of idle cycles
system.cpu.op_class::No_OpClass                     0                       # Class of executed instruction
system.cpu.op_class::IntAlu                         0                       # Class of executed instruction
system.cpu.op_class::IntMult                        0                       # Class of executed instruction
system.cpu.op_class::IntDiv                         0                       # Class of executed instruction
system.cpu.op_class::FloatAdd                       0                       # Class of executed instruction
system.cpu.op_class::FloatCmp                       0                       # Class of executed instruction
system.cpu.op_class::FloatCvt                       0                       # Class of executed instruction
system.cpu.op_class::FloatMult                      0                       # Class of executed instruction
system.cpu.op_class::FloatDiv                       0                       # Class of executed instruction
system.cpu.op_class::FloatSqrt                      0                       # Class of executed instruction
system.cpu.op_class::SimdAdd                        0                       # Class of executed instruction
system.cpu.op_class::SimdAddAcc                     0                       # Class of executed instruction
system.cpu.op_class::SimdAlu                        0                       # Class of executed instruction
system.cpu.op_class::SimdCmp                        0                       # Class of executed instruction
system.cpu.op_class::SimdCvt                        0                       # Class of executed instruction
system.cpu.op_class::SimdMisc                       0                       # Class of executed instruction
system.cpu.op_class::SimdMult                       0                       # Class of executed instruction
system.cpu.op_class::SimdMultAcc                    0                       # Class of executed instruction
system.cpu.op_class::SimdShift                      0                       # Class of executed instruction
system.cpu.op_class::SimdShiftAcc                   0                       # Class of executed instruction
system.cpu.op_class::SimdSqrt                       0                       # Class of executed instruction
system.cpu.op_class::SimdFloatAdd                   0                       # Class of executed instruction
system.cpu.op_class::SimdFloatAlu                   0                       # Class of executed instruction
system.cpu.op_class::SimdFloatCmp                   0                       # Class of executed instruction
system.cpu.op_class::SimdFloatCvt                   0                       # Class of executed instruction
system.cpu.op_class::SimdFloatDiv                   0                       # Class of executed instruction
system.cpu.op_class::SimdFloatMisc                  0                       # Class of executed instruction
system.cpu.op_class::SimdFloatMult                  0                       # Class of executed instruction
system.cpu.op_class::SimdFloatMultAcc               0                       # Class of executed instruction
system.cpu.op_class::SimdFloatSqrt                  0                       # Class of executed instruction
system.cpu.op_class::MemRead                        0                       # Class of executed instruction
system.cpu.op_class::MemWrite                       0                       # Class of executed instruction
system.cpu.op_class::IprAccess                      0                       # Class of executed instruction
system.cpu.op_class::InstPrefetch                   0                       # Class of executed instruction
system.cpu.op_class::total                          0                       # Class of executed instruction
system.cpu.kern.inst.arm                            0                       # number of arm instructions executed
system.cpu.kern.inst.quiesce                        0                       # number of quiesce instructions executed
system.cpu.kern.inst.hwrei                       2781                       # number of hwrei instructions executed
system.cpu.kern.ipl_count::0                      635     49.15%     49.15% # number of times we switched to this ipl
system.cpu.kern.ipl_count::22                       1      0.08%     49.23% # number of times we switched to this ipl
system.cpu.kern.ipl_count::31                     656     50.77%    100.00% # number of times we switched to this ipl
system.cpu.kern.ipl_count::total                 1292                       # number of times we switched to this ipl
system.cpu.kern.ipl_good::0                       633     49.96%     49.96% # number of times we switched to this ipl from a different ipl
system.cpu.kern.ipl_good::22                        1      0.08%     50.04% # number of times we switched to this ipl from a different ipl
system.cpu.kern.ipl_good::31                      633     49.96%    100.00% # number of times we switched to this ipl from a different ipl
system.cpu.kern.ipl_good::total                  1267                       # number of times we switched to this ipl from a different ipl
system.cpu.kern.ipl_ticks::0                698640500     89.49%     89.49% # number of cycles we spent at this ipl
system.cpu.kern.ipl_ticks::22                 1493500      0.19%     89.69% # number of cycles we spent at this ipl
system.cpu.kern.ipl_ticks::31                80524500     10.31%    100.00% # number of cycles we spent at this ipl
system.cpu.kern.ipl_ticks::total            780658500                       # number of cycles we spent at this ipl
system.cpu.kern.ipl_used::0                  0.996850                       # fraction of swpipl calls that actually changed the ipl
system.cpu.kern.ipl_used::22                        1                       # fraction of swpipl calls that actually changed the ipl
system.cpu.kern.ipl_used::31                 0.964939                       # fraction of swpipl calls that actually changed the ipl
system.cpu.kern.ipl_used::total              0.980650                       # fraction of swpipl calls that actually changed the ipl
system.cpu.kern.syscall::2                          1      5.56%      5.56% # number of syscalls executed
system.cpu.kern.syscall::3                          2     11.11%     16.67% # number of syscalls executed
system.cpu.kern.syscall::6                          2     11.11%     27.78% # number of syscalls executed
system.cpu.kern.syscall::17                         1      5.56%     33.33% # number of syscalls executed
system.cpu.kern.syscall::19                         1      5.56%     38.89% # number of syscalls executed
system.cpu.kern.syscall::33                         1      5.56%     44.44% # number of syscalls executed
system.cpu.kern.syscall::45                         3     16.67%     61.11% # number of syscalls executed
system.cpu.kern.syscall::48                         1      5.56%     66.67% # number of syscalls executed
system.cpu.kern.syscall::59                         1      5.56%     72.22% # number of syscalls executed
system.cpu.kern.syscall::71                         4     22.22%     94.44% # number of syscalls executed
system.cpu.kern.syscall::74                         1      5.56%    100.00% # number of syscalls executed
system.cpu.kern.syscall::total                     18                       # number of syscalls executed
system.cpu.kern.callpal::swpctx                   118      8.10%      8.10% # number of callpals executed
system.cpu.kern.callpal::tbi                        6      0.41%      8.51% # number of callpals executed
system.cpu.kern.callpal::swpipl                  1107     75.98%     84.49% # number of callpals executed
system.cpu.kern.callpal::rdps                       3      0.21%     84.69% # number of callpals executed
system.cpu.kern.callpal::wrusp                      1      0.07%     84.76% # number of callpals executed
system.cpu.kern.callpal::rdusp                      1      0.07%     84.83% # number of callpals executed
system.cpu.kern.callpal::rti                      184     12.63%     97.46% # number of callpals executed
system.cpu.kern.callpal::callsys                   33      2.26%     99.73% # number of callpals executed
system.cpu.kern.callpal::imb                        4      0.27%    100.00% # number of callpals executed
system.cpu.kern.callpal::total                   1457                       # number of callpals executed
system.cpu.kern.mode_switch::kernel               302                       # number of protection mode switches
system.cpu.kern.mode_switch::user                 181                       # number of protection mode switches
system.cpu.kern.mode_switch::idle                   0                       # number of protection mode switches
system.cpu.kern.mode_good::kernel                 181                      
system.cpu.kern.mode_good::user                   181                      
system.cpu.kern.mode_good::idle                     0                      
system.cpu.kern.mode_switch_good::kernel     0.599338                       # fraction of useful protection mode switches
system.cpu.kern.mode_switch_good::user              1                       # fraction of useful protection mode switches
system.cpu.kern.mode_switch_good::idle            nan                       # fraction of useful protection mode switches
system.cpu.kern.mode_switch_good::total      0.749482                       # fraction of useful protection mode switches
system.cpu.kern.mode_ticks::kernel          539492000     69.11%     69.11% # number of ticks spent at the given mode
system.cpu.kern.mode_ticks::user            241159500     30.89%    100.00% # number of ticks spent at the given mode
system.cpu.kern.mode_ticks::idle                    0      0.00%    100.00% # number of ticks spent at the given mode
system.cpu.kern.swap_context                      118                       # number of times the context was actually changed
system.cpu.dcache.tags.replacements             18289                       # number of replacements
system.cpu.dcache.tags.tagsinuse                  512                       # Cycle average of tags in use
system.cpu.dcache.tags.total_refs              198468                       # Total number of references to valid blocks.
system.cpu.dcache.tags.sampled_refs             18289                       # Sample count of references to valid blocks.
system.cpu.dcache.tags.avg_refs             10.851769                       # Average number of references to valid blocks.
system.cpu.dcache.tags.warmup_cycle                 0                       # Cycle when the warmup percentage was hit.
system.cpu.dcache.tags.occ_blocks::cpu.data    29.053837                       # Average occupied blocks per requestor
system.cpu.dcache.tags.occ_blocks::switch_cpus.data   482.946163                       # Average occupied blocks per requestor
system.cpu.dcache.tags.occ_percent::cpu.data     0.056746                       # Average percentage of cache occupancy
system.cpu.dcache.tags.occ_percent::switch_cpus.data     0.943254                       # Average percentage of cache occupancy
system.cpu.dcache.tags.occ_percent::total            1                       # Average percentage of cache occupancy
system.cpu.dcache.tags.occ_task_id_blocks::1024          512                       # Occupied blocks per task id
system.cpu.dcache.tags.age_task_id_blocks_1024::0          432                       # Occupied blocks per task id
system.cpu.dcache.tags.age_task_id_blocks_1024::1           79                       # Occupied blocks per task id
system.cpu.dcache.tags.age_task_id_blocks_1024::2            1                       # Occupied blocks per task id
system.cpu.dcache.tags.occ_task_id_percent::1024            1                       # Percentage of cache occupancy per task id
system.cpu.dcache.tags.tag_accesses           1179205                       # Number of tag accesses
system.cpu.dcache.tags.data_accesses          1179205                       # Number of data accesses
system.cpu.dcache.ReadReq_hits::switch_cpus.data       132152                       # number of ReadReq hits
system.cpu.dcache.ReadReq_hits::total          132152                       # number of ReadReq hits
system.cpu.dcache.WriteReq_hits::switch_cpus.data        58740                       # number of WriteReq hits
system.cpu.dcache.WriteReq_hits::total          58740                       # number of WriteReq hits
system.cpu.dcache.LoadLockedReq_hits::switch_cpus.data         2219                       # number of LoadLockedReq hits
system.cpu.dcache.LoadLockedReq_hits::total         2219                       # number of LoadLockedReq hits
system.cpu.dcache.StoreCondReq_hits::switch_cpus.data         2378                       # number of StoreCondReq hits
system.cpu.dcache.StoreCondReq_hits::total         2378                       # number of StoreCondReq hits
system.cpu.dcache.demand_hits::switch_cpus.data       190892                       # number of demand (read+write) hits
system.cpu.dcache.demand_hits::total           190892                       # number of demand (read+write) hits
system.cpu.dcache.overall_hits::switch_cpus.data       190892                       # number of overall hits
system.cpu.dcache.overall_hits::total          190892                       # number of overall hits
system.cpu.dcache.ReadReq_misses::switch_cpus.data        26847                       # number of ReadReq misses
system.cpu.dcache.ReadReq_misses::total         26847                       # number of ReadReq misses
system.cpu.dcache.WriteReq_misses::switch_cpus.data        67502                       # number of WriteReq misses
system.cpu.dcache.WriteReq_misses::total        67502                       # number of WriteReq misses
system.cpu.dcache.LoadLockedReq_misses::switch_cpus.data          391                       # number of LoadLockedReq misses
system.cpu.dcache.LoadLockedReq_misses::total          391                       # number of LoadLockedReq misses
system.cpu.dcache.demand_misses::switch_cpus.data        94349                       # number of demand (read+write) misses
system.cpu.dcache.demand_misses::total          94349                       # number of demand (read+write) misses
system.cpu.dcache.overall_misses::switch_cpus.data        94349                       # number of overall misses
system.cpu.dcache.overall_misses::total         94349                       # number of overall misses
system.cpu.dcache.ReadReq_miss_latency::switch_cpus.data    740023749                       # number of ReadReq miss cycles
system.cpu.dcache.ReadReq_miss_latency::total    740023749                       # number of ReadReq miss cycles
system.cpu.dcache.WriteReq_miss_latency::switch_cpus.data   1055962047                       # number of WriteReq miss cycles
system.cpu.dcache.WriteReq_miss_latency::total   1055962047                       # number of WriteReq miss cycles
system.cpu.dcache.LoadLockedReq_miss_latency::switch_cpus.data     10329000                       # number of LoadLockedReq miss cycles
system.cpu.dcache.LoadLockedReq_miss_latency::total     10329000                       # number of LoadLockedReq miss cycles
system.cpu.dcache.demand_miss_latency::switch_cpus.data   1795985796                       # number of demand (read+write) miss cycles
system.cpu.dcache.demand_miss_latency::total   1795985796                       # number of demand (read+write) miss cycles
system.cpu.dcache.overall_miss_latency::switch_cpus.data   1795985796                       # number of overall miss cycles
system.cpu.dcache.overall_miss_latency::total   1795985796                       # number of overall miss cycles
system.cpu.dcache.ReadReq_accesses::switch_cpus.data       158999                       # number of ReadReq accesses(hits+misses)
system.cpu.dcache.ReadReq_accesses::total       158999                       # number of ReadReq accesses(hits+misses)
system.cpu.dcache.WriteReq_accesses::switch_cpus.data       126242                       # number of WriteReq accesses(hits+misses)
system.cpu.dcache.WriteReq_accesses::total       126242                       # number of WriteReq accesses(hits+misses)
system.cpu.dcache.LoadLockedReq_accesses::switch_cpus.data         2610                       # number of LoadLockedReq accesses(hits+misses)
system.cpu.dcache.LoadLockedReq_accesses::total         2610                       # number of LoadLockedReq accesses(hits+misses)
system.cpu.dcache.StoreCondReq_accesses::switch_cpus.data         2378                       # number of StoreCondReq accesses(hits+misses)
system.cpu.dcache.StoreCondReq_accesses::total         2378                       # number of StoreCondReq accesses(hits+misses)
system.cpu.dcache.demand_accesses::switch_cpus.data       285241                       # number of demand (read+write) accesses
system.cpu.dcache.demand_accesses::total       285241                       # number of demand (read+write) accesses
system.cpu.dcache.overall_accesses::switch_cpus.data       285241                       # number of overall (read+write) accesses
system.cpu.dcache.overall_accesses::total       285241                       # number of overall (read+write) accesses
system.cpu.dcache.ReadReq_miss_rate::switch_cpus.data     0.168850                       # miss rate for ReadReq accesses
system.cpu.dcache.ReadReq_miss_rate::total     0.168850                       # miss rate for ReadReq accesses
system.cpu.dcache.WriteReq_miss_rate::switch_cpus.data     0.534703                       # miss rate for WriteReq accesses
system.cpu.dcache.WriteReq_miss_rate::total     0.534703                       # miss rate for WriteReq accesses
system.cpu.dcache.LoadLockedReq_miss_rate::switch_cpus.data     0.149808                       # miss rate for LoadLockedReq accesses
system.cpu.dcache.LoadLockedReq_miss_rate::total     0.149808                       # miss rate for LoadLockedReq accesses
system.cpu.dcache.demand_miss_rate::switch_cpus.data     0.330769                       # miss rate for demand accesses
system.cpu.dcache.demand_miss_rate::total     0.330769                       # miss rate for demand accesses
system.cpu.dcache.overall_miss_rate::switch_cpus.data     0.330769                       # miss rate for overall accesses
system.cpu.dcache.overall_miss_rate::total     0.330769                       # miss rate for overall accesses
system.cpu.dcache.ReadReq_avg_miss_latency::switch_cpus.data 27564.485753                       # average ReadReq miss latency
system.cpu.dcache.ReadReq_avg_miss_latency::total 27564.485753                       # average ReadReq miss latency
system.cpu.dcache.WriteReq_avg_miss_latency::switch_cpus.data 15643.418669                       # average WriteReq miss latency
system.cpu.dcache.WriteReq_avg_miss_latency::total 15643.418669                       # average WriteReq miss latency
system.cpu.dcache.LoadLockedReq_avg_miss_latency::switch_cpus.data 26416.879795                       # average LoadLockedReq miss latency
system.cpu.dcache.LoadLockedReq_avg_miss_latency::total 26416.879795                       # average LoadLockedReq miss latency
system.cpu.dcache.demand_avg_miss_latency::switch_cpus.data 19035.557303                       # average overall miss latency
system.cpu.dcache.demand_avg_miss_latency::total 19035.557303                       # average overall miss latency
system.cpu.dcache.overall_avg_miss_latency::switch_cpus.data 19035.557303                       # average overall miss latency
system.cpu.dcache.overall_avg_miss_latency::total 19035.557303                       # average overall miss latency
system.cpu.dcache.blocked_cycles::no_mshrs        41655                       # number of cycles access was blocked
system.cpu.dcache.blocked_cycles::no_targets          136                       # number of cycles access was blocked
system.cpu.dcache.blocked::no_mshrs              4223                       # number of cycles access was blocked
system.cpu.dcache.blocked::no_targets               1                       # number of cycles access was blocked
system.cpu.dcache.avg_blocked_cycles::no_mshrs     9.863841                       # average number of cycles each access was blocked
system.cpu.dcache.avg_blocked_cycles::no_targets          136                       # average number of cycles each access was blocked
system.cpu.dcache.fast_writes                       0                       # number of fast writes performed
system.cpu.dcache.cache_copies                      0                       # number of cache copies performed
system.cpu.dcache.writebacks::writebacks        13144                       # number of writebacks
system.cpu.dcache.writebacks::total             13144                       # number of writebacks
system.cpu.dcache.ReadReq_mshr_hits::switch_cpus.data        17872                       # number of ReadReq MSHR hits
system.cpu.dcache.ReadReq_mshr_hits::total        17872                       # number of ReadReq MSHR hits
system.cpu.dcache.WriteReq_mshr_hits::switch_cpus.data        58402                       # number of WriteReq MSHR hits
system.cpu.dcache.WriteReq_mshr_hits::total        58402                       # number of WriteReq MSHR hits
system.cpu.dcache.LoadLockedReq_mshr_hits::switch_cpus.data          169                       # number of LoadLockedReq MSHR hits
system.cpu.dcache.LoadLockedReq_mshr_hits::total          169                       # number of LoadLockedReq MSHR hits
system.cpu.dcache.demand_mshr_hits::switch_cpus.data        76274                       # number of demand (read+write) MSHR hits
system.cpu.dcache.demand_mshr_hits::total        76274                       # number of demand (read+write) MSHR hits
system.cpu.dcache.overall_mshr_hits::switch_cpus.data        76274                       # number of overall MSHR hits
system.cpu.dcache.overall_mshr_hits::total        76274                       # number of overall MSHR hits
system.cpu.dcache.ReadReq_mshr_misses::switch_cpus.data         8975                       # number of ReadReq MSHR misses
system.cpu.dcache.ReadReq_mshr_misses::total         8975                       # number of ReadReq MSHR misses
system.cpu.dcache.WriteReq_mshr_misses::switch_cpus.data         9100                       # number of WriteReq MSHR misses
system.cpu.dcache.WriteReq_mshr_misses::total         9100                       # number of WriteReq MSHR misses
system.cpu.dcache.LoadLockedReq_mshr_misses::switch_cpus.data          222                       # number of LoadLockedReq MSHR misses
system.cpu.dcache.LoadLockedReq_mshr_misses::total          222                       # number of LoadLockedReq MSHR misses
system.cpu.dcache.demand_mshr_misses::switch_cpus.data        18075                       # number of demand (read+write) MSHR misses
system.cpu.dcache.demand_mshr_misses::total        18075                       # number of demand (read+write) MSHR misses
system.cpu.dcache.overall_mshr_misses::switch_cpus.data        18075                       # number of overall MSHR misses
system.cpu.dcache.overall_mshr_misses::total        18075                       # number of overall MSHR misses
system.cpu.dcache.WriteReq_mshr_uncacheable::switch_cpus.data            1                       # number of WriteReq MSHR uncacheable
system.cpu.dcache.WriteReq_mshr_uncacheable::total            1                       # number of WriteReq MSHR uncacheable
system.cpu.dcache.overall_mshr_uncacheable_misses::switch_cpus.data            1                       # number of overall MSHR uncacheable misses
system.cpu.dcache.overall_mshr_uncacheable_misses::total            1                       # number of overall MSHR uncacheable misses
system.cpu.dcache.ReadReq_mshr_miss_latency::switch_cpus.data    262751251                       # number of ReadReq MSHR miss cycles
system.cpu.dcache.ReadReq_mshr_miss_latency::total    262751251                       # number of ReadReq MSHR miss cycles
system.cpu.dcache.WriteReq_mshr_miss_latency::switch_cpus.data    144372057                       # number of WriteReq MSHR miss cycles
system.cpu.dcache.WriteReq_mshr_miss_latency::total    144372057                       # number of WriteReq MSHR miss cycles
system.cpu.dcache.LoadLockedReq_mshr_miss_latency::switch_cpus.data      5005250                       # number of LoadLockedReq MSHR miss cycles
system.cpu.dcache.LoadLockedReq_mshr_miss_latency::total      5005250                       # number of LoadLockedReq MSHR miss cycles
system.cpu.dcache.demand_mshr_miss_latency::switch_cpus.data    407123308                       # number of demand (read+write) MSHR miss cycles
system.cpu.dcache.demand_mshr_miss_latency::total    407123308                       # number of demand (read+write) MSHR miss cycles
system.cpu.dcache.overall_mshr_miss_latency::switch_cpus.data    407123308                       # number of overall MSHR miss cycles
system.cpu.dcache.overall_mshr_miss_latency::total    407123308                       # number of overall MSHR miss cycles
system.cpu.dcache.WriteReq_mshr_uncacheable_latency::switch_cpus.data       223500                       # number of WriteReq MSHR uncacheable cycles
system.cpu.dcache.WriteReq_mshr_uncacheable_latency::total       223500                       # number of WriteReq MSHR uncacheable cycles
system.cpu.dcache.overall_mshr_uncacheable_latency::switch_cpus.data       223500                       # number of overall MSHR uncacheable cycles
system.cpu.dcache.overall_mshr_uncacheable_latency::total       223500                       # number of overall MSHR uncacheable cycles
system.cpu.dcache.ReadReq_mshr_miss_rate::switch_cpus.data     0.056447                       # mshr miss rate for ReadReq accesses
system.cpu.dcache.ReadReq_mshr_miss_rate::total     0.056447                       # mshr miss rate for ReadReq accesses
system.cpu.dcache.WriteReq_mshr_miss_rate::switch_cpus.data     0.072084                       # mshr miss rate for WriteReq accesses
system.cpu.dcache.WriteReq_mshr_miss_rate::total     0.072084                       # mshr miss rate for WriteReq accesses
system.cpu.dcache.LoadLockedReq_mshr_miss_rate::switch_cpus.data     0.085057                       # mshr miss rate for LoadLockedReq accesses
system.cpu.dcache.LoadLockedReq_mshr_miss_rate::total     0.085057                       # mshr miss rate for LoadLockedReq accesses
system.cpu.dcache.demand_mshr_miss_rate::switch_cpus.data     0.063367                       # mshr miss rate for demand accesses
system.cpu.dcache.demand_mshr_miss_rate::total     0.063367                       # mshr miss rate for demand accesses
system.cpu.dcache.overall_mshr_miss_rate::switch_cpus.data     0.063367                       # mshr miss rate for overall accesses
system.cpu.dcache.overall_mshr_miss_rate::total     0.063367                       # mshr miss rate for overall accesses
system.cpu.dcache.ReadReq_avg_mshr_miss_latency::switch_cpus.data 29275.905404                       # average ReadReq mshr miss latency
system.cpu.dcache.ReadReq_avg_mshr_miss_latency::total 29275.905404                       # average ReadReq mshr miss latency
system.cpu.dcache.WriteReq_avg_mshr_miss_latency::switch_cpus.data 15865.061209                       # average WriteReq mshr miss latency
system.cpu.dcache.WriteReq_avg_mshr_miss_latency::total 15865.061209                       # average WriteReq mshr miss latency
system.cpu.dcache.LoadLockedReq_avg_mshr_miss_latency::switch_cpus.data 22546.171171                       # average LoadLockedReq mshr miss latency
system.cpu.dcache.LoadLockedReq_avg_mshr_miss_latency::total 22546.171171                       # average LoadLockedReq mshr miss latency
system.cpu.dcache.demand_avg_mshr_miss_latency::switch_cpus.data 22524.111093                       # average overall mshr miss latency
system.cpu.dcache.demand_avg_mshr_miss_latency::total 22524.111093                       # average overall mshr miss latency
system.cpu.dcache.overall_avg_mshr_miss_latency::switch_cpus.data 22524.111093                       # average overall mshr miss latency
system.cpu.dcache.overall_avg_mshr_miss_latency::total 22524.111093                       # average overall mshr miss latency
system.cpu.dcache.WriteReq_avg_mshr_uncacheable_latency::switch_cpus.data       223500                       # average WriteReq mshr uncacheable latency
system.cpu.dcache.WriteReq_avg_mshr_uncacheable_latency::total       223500                       # average WriteReq mshr uncacheable latency
system.cpu.dcache.overall_avg_mshr_uncacheable_latency::switch_cpus.data       223500                       # average overall mshr uncacheable latency
system.cpu.dcache.overall_avg_mshr_uncacheable_latency::total       223500                       # average overall mshr uncacheable latency
system.cpu.dcache.no_allocate_misses                0                       # Number of misses that were no-allocate
system.cpu.icache.tags.replacements             10237                       # number of replacements
system.cpu.icache.tags.tagsinuse           511.893294                       # Cycle average of tags in use
system.cpu.icache.tags.total_refs              360804                       # Total number of references to valid blocks.
system.cpu.icache.tags.sampled_refs             10237                       # Sample count of references to valid blocks.
system.cpu.icache.tags.avg_refs             35.245091                       # Average number of references to valid blocks.
system.cpu.icache.tags.warmup_cycle                 0                       # Cycle when the warmup percentage was hit.
system.cpu.icache.tags.occ_blocks::cpu.inst    25.374945                       # Average occupied blocks per requestor
system.cpu.icache.tags.occ_blocks::switch_cpus.inst   486.518349                       # Average occupied blocks per requestor
system.cpu.icache.tags.occ_percent::cpu.inst     0.049560                       # Average percentage of cache occupancy
system.cpu.icache.tags.occ_percent::switch_cpus.inst     0.950231                       # Average percentage of cache occupancy
system.cpu.icache.tags.occ_percent::total     0.999792                       # Average percentage of cache occupancy
system.cpu.icache.tags.occ_task_id_blocks::1024          511                       # Occupied blocks per task id
system.cpu.icache.tags.age_task_id_blocks_1024::0           66                       # Occupied blocks per task id
system.cpu.icache.tags.age_task_id_blocks_1024::1          110                       # Occupied blocks per task id
system.cpu.icache.tags.age_task_id_blocks_1024::2          335                       # Occupied blocks per task id
system.cpu.icache.tags.occ_task_id_percent::1024     0.998047                       # Percentage of cache occupancy per task id
system.cpu.icache.tags.tag_accesses            333738                       # Number of tag accesses
system.cpu.icache.tags.data_accesses           333738                       # Number of data accesses
system.cpu.icache.ReadReq_hits::switch_cpus.inst       149599                       # number of ReadReq hits
system.cpu.icache.ReadReq_hits::total          149599                       # number of ReadReq hits
system.cpu.icache.demand_hits::switch_cpus.inst       149599                       # number of demand (read+write) hits
system.cpu.icache.demand_hits::total           149599                       # number of demand (read+write) hits
system.cpu.icache.overall_hits::switch_cpus.inst       149599                       # number of overall hits
system.cpu.icache.overall_hits::total          149599                       # number of overall hits
system.cpu.icache.ReadReq_misses::switch_cpus.inst        12148                       # number of ReadReq misses
system.cpu.icache.ReadReq_misses::total         12148                       # number of ReadReq misses
system.cpu.icache.demand_misses::switch_cpus.inst        12148                       # number of demand (read+write) misses
system.cpu.icache.demand_misses::total          12148                       # number of demand (read+write) misses
system.cpu.icache.overall_misses::switch_cpus.inst        12148                       # number of overall misses
system.cpu.icache.overall_misses::total         12148                       # number of overall misses
system.cpu.icache.ReadReq_miss_latency::switch_cpus.inst    565544738                       # number of ReadReq miss cycles
system.cpu.icache.ReadReq_miss_latency::total    565544738                       # number of ReadReq miss cycles
system.cpu.icache.demand_miss_latency::switch_cpus.inst    565544738                       # number of demand (read+write) miss cycles
system.cpu.icache.demand_miss_latency::total    565544738                       # number of demand (read+write) miss cycles
system.cpu.icache.overall_miss_latency::switch_cpus.inst    565544738                       # number of overall miss cycles
system.cpu.icache.overall_miss_latency::total    565544738                       # number of overall miss cycles
system.cpu.icache.ReadReq_accesses::switch_cpus.inst       161747                       # number of ReadReq accesses(hits+misses)
system.cpu.icache.ReadReq_accesses::total       161747                       # number of ReadReq accesses(hits+misses)
system.cpu.icache.demand_accesses::switch_cpus.inst       161747                       # number of demand (read+write) accesses
system.cpu.icache.demand_accesses::total       161747                       # number of demand (read+write) accesses
system.cpu.icache.overall_accesses::switch_cpus.inst       161747                       # number of overall (read+write) accesses
system.cpu.icache.overall_accesses::total       161747                       # number of overall (read+write) accesses
system.cpu.icache.ReadReq_miss_rate::switch_cpus.inst     0.075105                       # miss rate for ReadReq accesses
system.cpu.icache.ReadReq_miss_rate::total     0.075105                       # miss rate for ReadReq accesses
system.cpu.icache.demand_miss_rate::switch_cpus.inst     0.075105                       # miss rate for demand accesses
system.cpu.icache.demand_miss_rate::total     0.075105                       # miss rate for demand accesses
system.cpu.icache.overall_miss_rate::switch_cpus.inst     0.075105                       # miss rate for overall accesses
system.cpu.icache.overall_miss_rate::total     0.075105                       # miss rate for overall accesses
system.cpu.icache.ReadReq_avg_miss_latency::switch_cpus.inst 46554.555318                       # average ReadReq miss latency
system.cpu.icache.ReadReq_avg_miss_latency::total 46554.555318                       # average ReadReq miss latency
system.cpu.icache.demand_avg_miss_latency::switch_cpus.inst 46554.555318                       # average overall miss latency
system.cpu.icache.demand_avg_miss_latency::total 46554.555318                       # average overall miss latency
system.cpu.icache.overall_avg_miss_latency::switch_cpus.inst 46554.555318                       # average overall miss latency
system.cpu.icache.overall_avg_miss_latency::total 46554.555318                       # average overall miss latency
system.cpu.icache.blocked_cycles::no_mshrs         2148                       # number of cycles access was blocked
system.cpu.icache.blocked_cycles::no_targets            0                       # number of cycles access was blocked
system.cpu.icache.blocked::no_mshrs                53                       # number of cycles access was blocked
system.cpu.icache.blocked::no_targets               0                       # number of cycles access was blocked
system.cpu.icache.avg_blocked_cycles::no_mshrs    40.528302                       # average number of cycles each access was blocked
system.cpu.icache.avg_blocked_cycles::no_targets          nan                       # average number of cycles each access was blocked
system.cpu.icache.fast_writes                       0                       # number of fast writes performed
system.cpu.icache.cache_copies                      0                       # number of cache copies performed
system.cpu.icache.ReadReq_mshr_hits::switch_cpus.inst         1902                       # number of ReadReq MSHR hits
system.cpu.icache.ReadReq_mshr_hits::total         1902                       # number of ReadReq MSHR hits
system.cpu.icache.demand_mshr_hits::switch_cpus.inst         1902                       # number of demand (read+write) MSHR hits
system.cpu.icache.demand_mshr_hits::total         1902                       # number of demand (read+write) MSHR hits
system.cpu.icache.overall_mshr_hits::switch_cpus.inst         1902                       # number of overall MSHR hits
system.cpu.icache.overall_mshr_hits::total         1902                       # number of overall MSHR hits
system.cpu.icache.ReadReq_mshr_misses::switch_cpus.inst        10246                       # number of ReadReq MSHR misses
system.cpu.icache.ReadReq_mshr_misses::total        10246                       # number of ReadReq MSHR misses
system.cpu.icache.demand_mshr_misses::switch_cpus.inst        10246                       # number of demand (read+write) MSHR misses
system.cpu.icache.demand_mshr_misses::total        10246                       # number of demand (read+write) MSHR misses
system.cpu.icache.overall_mshr_misses::switch_cpus.inst        10246                       # number of overall MSHR misses
system.cpu.icache.overall_mshr_misses::total        10246                       # number of overall MSHR misses
system.cpu.icache.ReadReq_mshr_miss_latency::switch_cpus.inst    457964008                       # number of ReadReq MSHR miss cycles
system.cpu.icache.ReadReq_mshr_miss_latency::total    457964008                       # number of ReadReq MSHR miss cycles
system.cpu.icache.demand_mshr_miss_latency::switch_cpus.inst    457964008                       # number of demand (read+write) MSHR miss cycles
system.cpu.icache.demand_mshr_miss_latency::total    457964008                       # number of demand (read+write) MSHR miss cycles
system.cpu.icache.overall_mshr_miss_latency::switch_cpus.inst    457964008                       # number of overall MSHR miss cycles
system.cpu.icache.overall_mshr_miss_latency::total    457964008                       # number of overall MSHR miss cycles
system.cpu.icache.ReadReq_mshr_miss_rate::switch_cpus.inst     0.063346                       # mshr miss rate for ReadReq accesses
system.cpu.icache.ReadReq_mshr_miss_rate::total     0.063346                       # mshr miss rate for ReadReq accesses
system.cpu.icache.demand_mshr_miss_rate::switch_cpus.inst     0.063346                       # mshr miss rate for demand accesses
system.cpu.icache.demand_mshr_miss_rate::total     0.063346                       # mshr miss rate for demand accesses
system.cpu.icache.overall_mshr_miss_rate::switch_cpus.inst     0.063346                       # mshr miss rate for overall accesses
system.cpu.icache.overall_mshr_miss_rate::total     0.063346                       # mshr miss rate for overall accesses
system.cpu.icache.ReadReq_avg_mshr_miss_latency::switch_cpus.inst 44696.858091                       # average ReadReq mshr miss latency
system.cpu.icache.ReadReq_avg_mshr_miss_latency::total 44696.858091                       # average ReadReq mshr miss latency
system.cpu.icache.demand_avg_mshr_miss_latency::switch_cpus.inst 44696.858091                       # average overall mshr miss latency
system.cpu.icache.demand_avg_mshr_miss_latency::total 44696.858091                       # average overall mshr miss latency
system.cpu.icache.overall_avg_mshr_miss_latency::switch_cpus.inst 44696.858091                       # average overall mshr miss latency
[...]
system.switch_cpus.iew.wb_penalized_rate            0                       # fraction of instructions written-back that wrote to 'other' IQ
system.switch_cpus.commit.commitSquashedInsts      7981251                       # The number of squashed insts skipped by commit
system.switch_cpus.commit.commitNonSpecStalls       941133                       # The number of times commit has been forced to stall to communicate backwards
system.switch_cpus.commit.branchMispredicts       377614                       # The number of times a branch was mispredicted
system.switch_cpus.commit.committed_per_cycle::samples     72977418                       # Number of insts commited each cycle
system.switch_cpus.commit.committed_per_cycle::mean     0.775875                       # Number of insts commited each cycle
system.switch_cpus.commit.committed_per_cycle::stdev     1.936477                       # Number of insts commited each cycle
system.switch_cpus.commit.committed_per_cycle::underflows            0      0.00%      0.00% # Number of insts commited each cycle
system.switch_cpus.commit.committed_per_cycle::0     56059312     76.82%     76.82% # Number of insts commited each cycle
system.switch_cpus.commit.committed_per_cycle::1      7035706      9.64%     86.46% # Number of insts commited each cycle
system.switch_cpus.commit.committed_per_cycle::2      2409996      3.30%     89.76% # Number of insts commited each cycle
system.switch_cpus.commit.committed_per_cycle::3      1522236      2.09%     91.85% # Number of insts commited each cycle
system.switch_cpus.commit.committed_per_cycle::4      1106323      1.52%     93.36% # Number of insts commited each cycle
system.switch_cpus.commit.committed_per_cycle::5       544336      0.75%     94.11% # Number of insts commited each cycle
system.switch_cpus.commit.committed_per_cycle::6       449948      0.62%     94.72% # Number of insts commited each cycle
system.switch_cpus.commit.committed_per_cycle::7       444212      0.61%     95.33% # Number of insts commited each cycle
system.switch_cpus.commit.committed_per_cycle::8      3405349      4.67%    100.00% # Number of insts commited each cycle
system.switch_cpus.commit.committed_per_cycle::overflows            0      0.00%    100.00% # Number of insts commited each cycle
system.switch_cpus.commit.committed_per_cycle::min_value            0                       # Number of insts commited each cycle
system.switch_cpus.commit.committed_per_cycle::max_value            8                       # Number of insts commited each cycle
system.switch_cpus.commit.committed_per_cycle::total     72977418                       # Number of insts commited each cycle
system.switch_cpus.commit.committedInsts     56621342                       # Number of instructions committed
system.switch_cpus.commit.committedOps       56621342                       # Number of ops (including micro ops) committed
system.switch_cpus.commit.swp_count                 0                       # Number of s/w prefetches committed
system.switch_cpus.commit.refs               17856682                       # Number of memory references committed
system.switch_cpus.commit.loads              10597573                       # Number of loads committed
system.switch_cpus.commit.membars              527601                       # Number of memory barriers committed
system.switch_cpus.commit.branches            8044104                       # Number of branches committed
system.switch_cpus.commit.fp_insts              96161                       # Number of committed floating point instructions.
system.switch_cpus.commit.int_insts          54854123                       # Number of committed integer instructions.
system.switch_cpus.commit.function_calls       923971                       # Number of function calls committed.
system.switch_cpus.commit.op_class_0::No_OpClass       639713      1.13%      1.13% # Class of committed instruction
system.switch_cpus.commit.op_class_0::IntAlu     36809607     65.01%     66.14% # Class of committed instruction
system.switch_cpus.commit.op_class_0::IntMult        61189      0.11%     66.25% # Class of committed instruction
system.switch_cpus.commit.op_class_0::IntDiv            0      0.00%     66.25% # Class of committed instruction
system.switch_cpus.commit.op_class_0::FloatAdd        33407      0.06%     66.31% # Class of committed instruction
system.switch_cpus.commit.op_class_0::FloatCmp            1      0.00%     66.31% # Class of committed instruction
system.switch_cpus.commit.op_class_0::FloatCvt        17780      0.03%     66.34% # Class of committed instruction
system.switch_cpus.commit.op_class_0::FloatMult            1      0.00%     66.34% # Class of committed instruction
system.switch_cpus.commit.op_class_0::FloatDiv         6171      0.01%     66.35% # Class of committed instruction
system.switch_cpus.commit.op_class_0::FloatSqrt            0      0.00%     66.35% # Class of committed instruction
system.switch_cpus.commit.op_class_0::SimdAdd            0      0.00%     66.35% # Class of committed instruction
system.switch_cpus.commit.op_class_0::SimdAddAcc            0      0.00%     66.35% # Class of committed instruction
system.switch_cpus.commit.op_class_0::SimdAlu            0      0.00%     66.35% # Class of committed instruction
system.switch_cpus.commit.op_class_0::SimdCmp            0      0.00%     66.35% # Class of committed instruction
system.switch_cpus.commit.op_class_0::SimdCvt            0      0.00%     66.35% # Class of committed instruction
system.switch_cpus.commit.op_class_0::SimdMisc            0      0.00%     66.35% # Class of committed instruction
system.switch_cpus.commit.op_class_0::SimdMult            0      0.00%     66.35% # Class of committed instruction
system.switch_cpus.commit.op_class_0::SimdMultAcc            0      0.00%     66.35% # Class of committed instruction
system.switch_cpus.commit.op_class_0::SimdShift            0      0.00%     66.35% # Class of committed instruction
system.switch_cpus.commit.op_class_0::SimdShiftAcc            0      0.00%     66.35% # Class of committed instruction
system.switch_cpus.commit.op_class_0::SimdSqrt            0      0.00%     66.35% # Class of committed instruction
system.switch_cpus.commit.op_class_0::SimdFloatAdd            0      0.00%     66.35% # Class of committed instruction
system.switch_cpus.commit.op_class_0::SimdFloatAlu            0      0.00%     66.35% # Class of committed instruction
system.switch_cpus.commit.op_class_0::SimdFloatCmp            0      0.00%     66.35% # Class of committed instruction
system.switch_cpus.commit.op_class_0::SimdFloatCvt            0      0.00%     66.35% # Class of committed instruction
system.switch_cpus.commit.op_class_0::SimdFloatDiv            0      0.00%     66.35% # Class of committed instruction
system.switch_cpus.commit.op_class_0::SimdFloatMisc            0      0.00%     66.35% # Class of committed instruction
system.switch_cpus.commit.op_class_0::SimdFloatMult            0      0.00%     66.35% # Class of committed instruction
system.switch_cpus.commit.op_class_0::SimdFloatMultAcc            0      0.00%     66.35% # Class of committed instruction
system.switch_cpus.commit.op_class_0::SimdFloatSqrt            0      0.00%     66.35% # Class of committed instruction
system.switch_cpus.commit.op_class_0::MemRead     11125174     19.65%     86.00% # Class of committed instruction
system.switch_cpus.commit.op_class_0::MemWrite      7267923     12.84%     98.83% # Class of committed instruction
system.switch_cpus.commit.op_class_0::IprAccess       660376      1.17%    100.00% # Class of committed instruction
system.switch_cpus.commit.op_class_0::InstPrefetch            0      0.00%    100.00% # Class of committed instruction
system.switch_cpus.commit.op_class_0::total     56621342                       # Class of committed instruction
system.switch_cpus.commit.bw_lim_events       3405349                       # number cycles where commit BW limit reached
system.switch_cpus.rob.rob_reads            133867803                       # The number of ROB reads
system.switch_cpus.rob.rob_writes           130523174                       # The number of ROB writes
system.switch_cpus.timesIdled                  461211                       # Number of times that the entire CPU went into an idle state and unscheduled itself
system.switch_cpus.idleCycles                 5658050                       # Total number of cycles that the CPU has spent unscheduled due to idling
system.switch_cpus.quiesceCycles               563456                       # Total number of cycles that CPU has spent quiesced or waiting for an interrupt
system.switch_cpus.committedInsts            55993973                       # Number of Instructions Simulated
system.switch_cpus.committedOps              55993973                       # Number of Ops (including micro ops) Simulated
system.switch_cpus.cpi                       1.427600                       # CPI: Cycles Per Instruction
system.switch_cpus.cpi_total                 1.427600                       # CPI: Total CPI of All Threads
system.switch_cpus.ipc                       0.700476                       # IPC: Instructions Per Cycle
system.switch_cpus.ipc_total                 0.700476                       # IPC: Total IPC of All Threads
system.switch_cpus.int_regfile_reads         80596156                       # number of integer regfile reads
system.switch_cpus.int_regfile_writes        44021597                       # number of integer regfile writes
system.switch_cpus.fp_regfile_reads             62539                       # number of floating regfile reads
system.switch_cpus.fp_regfile_writes            62247                       # number of floating regfile writes
system.switch_cpus.misc_regfile_reads         1292668                       # number of misc regfile reads
system.switch_cpus.misc_regfile_writes         938534                       # number of misc regfile writes
system.tol2bus.trans_dist::ReadReq            1403161                       # Transaction distribution
system.tol2bus.trans_dist::ReadResp           1403138                       # Transaction distribution
system.tol2bus.trans_dist::WriteReq               280                       # Transaction distribution
system.tol2bus.trans_dist::WriteResp              280                       # Transaction distribution
system.tol2bus.trans_dist::Writeback           294511                       # Transaction distribution
system.tol2bus.trans_dist::WriteInvalidateReq         1921                       # Transaction distribution
system.tol2bus.trans_dist::UpgradeReq             133                       # Transaction distribution
system.tol2bus.trans_dist::SCUpgradeReq            33                       # Transaction distribution
system.tol2bus.trans_dist::UpgradeResp            166                       # Transaction distribution
system.tol2bus.trans_dist::ReadExReq           198646                       # Transaction distribution
system.tol2bus.trans_dist::ReadExResp          198646                       # Transaction distribution
system.tol2bus.trans_dist::BadAddressError           23                       # Transaction distribution
system.tol2bus.pkt_count_system.cpu.icache.mem_side::system.l2.cpu_side      1936262                       # Packet count per connected master and slave (bytes)
system.tol2bus.pkt_count_system.cpu.dcache.mem_side::system.l2.cpu_side      1562557                       # Packet count per connected master and slave (bytes)
system.tol2bus.pkt_count::total               3498819                       # Packet count per connected master and slave (bytes)
system.tol2bus.pkt_size_system.cpu.icache.mem_side::system.l2.cpu_side     61954304                       # Cumulative packet size per connected master and slave (bytes)
system.tol2bus.pkt_size_system.cpu.dcache.mem_side::system.l2.cpu_side     59374306                       # Cumulative packet size per connected master and slave (bytes)
system.tol2bus.pkt_size::total              121328610                       # Cumulative packet size per connected master and slave (bytes)
system.tol2bus.snoops                            2125                       # Total snoops (count)
system.tol2bus.snoop_fanout::samples          1898685                       # Request fanout histogram
system.tol2bus.snoop_fanout::mean            1.001015                       # Request fanout histogram
system.tol2bus.snoop_fanout::stdev           0.031850                       # Request fanout histogram
system.tol2bus.snoop_fanout::underflows             0      0.00%      0.00% # Request fanout histogram
system.tol2bus.snoop_fanout::0                      0      0.00%      0.00% # Request fanout histogram
system.tol2bus.snoop_fanout::1                1896757     99.90%     99.90% # Request fanout histogram
system.tol2bus.snoop_fanout::2                   1928      0.10%    100.00% # Request fanout histogram
system.tol2bus.snoop_fanout::overflows              0      0.00%    100.00% # Request fanout histogram
system.tol2bus.snoop_fanout::min_value              1                       # Request fanout histogram
system.tol2bus.snoop_fanout::max_value              2                       # Request fanout histogram
system.tol2bus.snoop_fanout::total            1898685                       # Request fanout histogram
system.tol2bus.reqLayer0.occupancy         1243029500                       # Layer occupancy (ticks)
system.tol2bus.reqLayer0.utilization              3.1                       # Layer utilization (%)
system.tol2bus.snoopLayer0.occupancy             9000                       # Layer occupancy (ticks)
system.tol2bus.snoopLayer0.utilization            0.0                       # Layer utilization (%)
system.tol2bus.respLayer0.occupancy        1459157108                       # Layer occupancy (ticks)
system.tol2bus.respLayer0.utilization             3.6                       # Layer utilization (%)
system.tol2bus.respLayer1.occupancy        1009709996                       # Layer occupancy (ticks)
system.tol2bus.respLayer1.utilization             2.5                       # Layer utilization (%)
system.tsunami.ethernet.descDMAReads                0                       # Number of descriptors the device read w/ DMA
system.tsunami.ethernet.descDMAWrites               0                       # Number of descriptors the device wrote w/ DMA
system.tsunami.ethernet.descDmaReadBytes            0                       # number of descriptor bytes read w/ DMA
system.tsunami.ethernet.descDmaWriteBytes            0                       # number of descriptor bytes write w/ DMA
system.tsunami.ethernet.postedSwi                   0                       # number of software interrupts posted to CPU
system.tsunami.ethernet.coalescedSwi              nan                       # average number of Swi's coalesced into each post
system.tsunami.ethernet.totalSwi                    0                       # total number of Swi written to ISR
system.tsunami.ethernet.postedRxIdle                0                       # number of rxIdle interrupts posted to CPU
system.tsunami.ethernet.coalescedRxIdle           nan                       # average number of RxIdle's coalesced into each post
system.tsunami.ethernet.totalRxIdle                 0                       # total number of RxIdle written to ISR
system.tsunami.ethernet.postedRxOk                  0                       # number of RxOk interrupts posted to CPU
system.tsunami.ethernet.coalescedRxOk             nan                       # average number of RxOk's coalesced into each post
system.tsunami.ethernet.totalRxOk                   0                       # total number of RxOk written to ISR
system.tsunami.ethernet.postedRxDesc                0                       # number of RxDesc interrupts posted to CPU
system.tsunami.ethernet.coalescedRxDesc           nan                       # average number of RxDesc's coalesced into each post
system.tsunami.ethernet.totalRxDesc                 0                       # total number of RxDesc written to ISR
system.tsunami.ethernet.postedTxOk                  0                       # number of TxOk interrupts posted to CPU
system.tsunami.ethernet.coalescedTxOk             nan                       # average number of TxOk's coalesced into each post
system.tsunami.ethernet.totalTxOk                   0                       # total number of TxOk written to ISR
system.tsunami.ethernet.postedTxIdle                0                       # number of TxIdle interrupts posted to CPU
system.tsunami.ethernet.coalescedTxIdle           nan                       # average number of TxIdle's coalesced into each post
system.tsunami.ethernet.totalTxIdle                 0                       # total number of TxIdle written to ISR
system.tsunami.ethernet.postedTxDesc                0                       # number of TxDesc interrupts posted to CPU
system.tsunami.ethernet.coalescedTxDesc           nan                       # average number of TxDesc's coalesced into each post
system.tsunami.ethernet.totalTxDesc                 0                       # total number of TxDesc written to ISR
system.tsunami.ethernet.postedRxOrn                 0                       # number of RxOrn posted to CPU
system.tsunami.ethernet.coalescedRxOrn            nan                       # average number of RxOrn's coalesced into each post
system.tsunami.ethernet.totalRxOrn                  0                       # total number of RxOrn written to ISR
system.tsunami.ethernet.coalescedTotal            nan                       # average number of interrupts coalesced into each post
system.tsunami.ethernet.postedInterrupts            0                       # number of posts to CPU
system.tsunami.ethernet.droppedPackets              0                       # number of packets dropped
system.switch_cpus.kern.inst.arm                    0                       # number of arm instructions executed
system.switch_cpus.kern.inst.quiesce                0                       # number of quiesce instructions executed
system.switch_cpus.kern.inst.hwrei                  0                       # number of hwrei instructions executed
system.switch_cpus.kern.mode_switch::kernel            0                       # number of protection mode switches
system.switch_cpus.kern.mode_switch::user            0                       # number of protection mode switches
system.switch_cpus.kern.mode_switch::idle            0                       # number of protection mode switches
system.switch_cpus.kern.mode_good::kernel            0                      
system.switch_cpus.kern.mode_good::user             0                      
system.switch_cpus.kern.mode_good::idle             0                      
system.switch_cpus.kern.mode_switch_good::kernel          nan                       # fraction of useful protection mode switches
system.switch_cpus.kern.mode_switch_good::user          nan                       # fraction of useful protection mode switches
system.switch_cpus.kern.mode_switch_good::idle          nan                       # fraction of useful protection mode switches
system.switch_cpus.kern.mode_switch_good::total          nan                       # fraction of useful protection mode switches
system.switch_cpus.kern.mode_ticks::kernel            0                       # number of ticks spent at the given mode
system.switch_cpus.kern.mode_ticks::user            0                       # number of ticks spent at the given mode
system.switch_cpus.kern.mode_ticks::idle            0                       # number of ticks spent at the given mode
system.switch_cpus.kern.swap_context                0                       # number of times the context was actually changed

---------- End Simulation Statistics   ----------
