
---------- Begin Simulation Statistics ----------
sim_seconds                                  0.001250                       # Number of seconds simulated
sim_ticks                                  1250467000                       # Number of ticks simulated
final_tick                               2255690964000                       # Number of ticks from beginning of simulation (restored from checkpoints and never reset)
sim_freq                                 1000000000000                       # Frequency of simulated ticks
host_inst_rate                               29433909                       # Simulator instruction rate (inst/s)
host_op_rate                                 29433842                       # Simulator op (including micro ops) rate (op/s)
host_tick_rate                              375629962                       # Simulator tick rate (ticks/s)
host_mem_usage                                 729108                       # Number of bytes of host memory used
host_seconds                                     3.33                       # Real time elapsed on the host
sim_insts                                    97984658                       # Number of instructions simulated
sim_ops                                      97984658                       # Number of ops (including micro ops) simulated
system.voltage_domain.voltage                       1                       # Voltage in Volts
system.clk_domain.clock                          1000                       # Clock period in ticks
system.mem_ctrls.bytes_read::switch_cpus.inst       452032                       # Number of bytes read from this memory
system.mem_ctrls.bytes_read::switch_cpus.data      1002816                       # Number of bytes read from this memory
system.mem_ctrls.bytes_read::total            1454848                       # Number of bytes read from this memory
system.mem_ctrls.bytes_inst_read::switch_cpus.inst       452032                       # Number of instructions bytes read from this memory
system.mem_ctrls.bytes_inst_read::total        452032                       # Number of instructions bytes read from this memory
system.mem_ctrls.bytes_written::writebacks       608960                       # Number of bytes written to this memory
system.mem_ctrls.bytes_written::total          608960                       # Number of bytes written to this memory
system.mem_ctrls.num_reads::switch_cpus.inst         7063                       # Number of read requests responded to by this memory
system.mem_ctrls.num_reads::switch_cpus.data        15669                       # Number of read requests responded to by this memory
system.mem_ctrls.num_reads::total               22732                       # Number of read requests responded to by this memory
system.mem_ctrls.num_writes::writebacks          9515                       # Number of write requests responded to by this memory
system.mem_ctrls.num_writes::total               9515                       # Number of write requests responded to by this memory
system.mem_ctrls.bw_read::switch_cpus.inst    361490547                       # Total read bandwidth from this memory (bytes/s)
system.mem_ctrls.bw_read::switch_cpus.data    801953190                       # Total read bandwidth from this memory (bytes/s)
system.mem_ctrls.bw_read::total            1163443737                       # Total read bandwidth from this memory (bytes/s)
system.mem_ctrls.bw_inst_read::switch_cpus.inst    361490547                       # Instruction read bandwidth from this memory (bytes/s)
system.mem_ctrls.bw_inst_read::total        361490547                       # Instruction read bandwidth from this memory (bytes/s)
system.mem_ctrls.bw_write::writebacks       486986062                       # Write bandwidth from this memory (bytes/s)
system.mem_ctrls.bw_write::total            486986062                       # Write bandwidth from this memory (bytes/s)
system.mem_ctrls.bw_total::writebacks       486986062                       # Total bandwidth to/from this memory (bytes/s)
system.mem_ctrls.bw_total::switch_cpus.inst    361490547                       # Total bandwidth to/from this memory (bytes/s)
system.mem_ctrls.bw_total::switch_cpus.data    801953190                       # Total bandwidth to/from this memory (bytes/s)
system.mem_ctrls.bw_total::total           1650429799                       # Total bandwidth to/from this memory (bytes/s)
system.mem_ctrls.readReqs                       22732                       # Number of read requests accepted
system.mem_ctrls.writeReqs                       9515                       # Number of write requests accepted
system.mem_ctrls.readBursts                     22732                       # Number of DRAM read bursts, including those serviced by the write queue
system.mem_ctrls.writeBursts                     9515                       # Number of DRAM write bursts, including those merged in the write queue
system.mem_ctrls.bytesReadDRAM                1451136                       # Total number of bytes read from DRAM
system.mem_ctrls.bytesReadWrQ                    3712                       # Total number of bytes read from write queue
system.mem_ctrls.bytesWritten                  607616                       # Total number of bytes written to DRAM
system.mem_ctrls.bytesReadSys                 1454848                       # Total read bytes from the system interface side
system.mem_ctrls.bytesWrittenSys               608960                       # Total written bytes from the system interface side
system.mem_ctrls.servicedByWrQ                     58                       # Number of DRAM read bursts serviced by the write queue
system.mem_ctrls.mergedWrBursts                     2                       # Number of DRAM write bursts merged with an existing one
system.mem_ctrls.neitherReadNorWriteReqs            9                       # Number of requests that are neither read nor write
system.mem_ctrls.perBankRdBursts::0              1502                       # Per bank write bursts
system.mem_ctrls.perBankRdBursts::1              1080                       # Per bank write bursts
system.mem_ctrls.perBankRdBursts::2              1602                       # Per bank write bursts
system.mem_ctrls.perBankRdBursts::3              1454                       # Per bank write bursts
system.mem_ctrls.perBankRdBursts::4              1576                       # Per bank write bursts
system.mem_ctrls.perBankRdBursts::5              1167                       # Per bank write bursts
system.mem_ctrls.perBankRdBursts::6              1517                       # Per bank write bursts
system.mem_ctrls.perBankRdBursts::7              1152                       # Per bank write bursts
system.mem_ctrls.perBankRdBursts::8              1421                       # Per bank write bursts
system.mem_ctrls.perBankRdBursts::9              1459                       # Per bank write bursts
system.mem_ctrls.perBankRdBursts::10             1383                       # Per bank write bursts
system.mem_ctrls.perBankRdBursts::11             1684                       # Per bank write bursts
system.mem_ctrls.perBankRdBursts::12             1293                       # Per bank write bursts
system.mem_ctrls.perBankRdBursts::13             2070                       # Per bank write bursts
system.mem_ctrls.perBankRdBursts::14             1328                       # Per bank write bursts
system.mem_ctrls.perBankRdBursts::15              986                       # Per bank write bursts
system.mem_ctrls.perBankWrBursts::0               547                       # Per bank write bursts
system.mem_ctrls.perBankWrBursts::1               589                       # Per bank write bursts
system.mem_ctrls.perBankWrBursts::2               878                       # Per bank write bursts
system.mem_ctrls.perBankWrBursts::3              1029                       # Per bank write bursts
system.mem_ctrls.perBankWrBursts::4               916                       # Per bank write bursts
system.mem_ctrls.perBankWrBursts::5               648                       # Per bank write bursts
system.mem_ctrls.perBankWrBursts::6               810                       # Per bank write bursts
system.mem_ctrls.perBankWrBursts::7               429                       # Per bank write bursts
system.mem_ctrls.perBankWrBursts::8               403                       # Per bank write bursts
system.mem_ctrls.perBankWrBursts::9               691                       # Per bank write bursts
system.mem_ctrls.perBankWrBursts::10              297                       # Per bank write bursts
system.mem_ctrls.perBankWrBursts::11              424                       # Per bank write bursts
system.mem_ctrls.perBankWrBursts::12              273                       # Per bank write bursts
system.mem_ctrls.perBankWrBursts::13              520                       # Per bank write bursts
system.mem_ctrls.perBankWrBursts::14              536                       # Per bank write bursts
system.mem_ctrls.perBankWrBursts::15              504                       # Per bank write bursts
system.mem_ctrls.numRdRetry                         0                       # Number of times read queue was full causing retry
system.mem_ctrls.numWrRetry                         0                       # Number of times write queue was full causing retry
system.mem_ctrls.totGap                    1250435500                       # Total gap between requests
system.mem_ctrls.readPktSize::0                     0                       # Read request sizes (log2)
system.mem_ctrls.readPktSize::1                     0                       # Read request sizes (log2)
system.mem_ctrls.readPktSize::2                     0                       # Read request sizes (log2)
system.mem_ctrls.readPktSize::3                     0                       # Read request sizes (log2)
system.mem_ctrls.readPktSize::4                     0                       # Read request sizes (log2)
system.mem_ctrls.readPktSize::5                     0                       # Read request sizes (log2)
system.mem_ctrls.readPktSize::6                 22732                       # Read request sizes (log2)
system.mem_ctrls.writePktSize::0                    0                       # Write request sizes (log2)
system.mem_ctrls.writePktSize::1                    0                       # Write request sizes (log2)
system.mem_ctrls.writePktSize::2                    0                       # Write request sizes (log2)
system.mem_ctrls.writePktSize::3                    0                       # Write request sizes (log2)
system.mem_ctrls.writePktSize::4                    0                       # Write request sizes (log2)
system.mem_ctrls.writePktSize::5                    0                       # Write request sizes (log2)
system.mem_ctrls.writePktSize::6                 9515                       # Write request sizes (log2)
system.mem_ctrls.rdQLenPdf::0                   11769                       # What read queue length does an incoming req see
system.mem_ctrls.rdQLenPdf::1                    6094                       # What read queue length does an incoming req see
system.mem_ctrls.rdQLenPdf::2                    3167                       # What read queue length does an incoming req see
system.mem_ctrls.rdQLenPdf::3                    1590                       # What read queue length does an incoming req see
system.mem_ctrls.rdQLenPdf::4                      50                       # What read queue length does an incoming req see
system.mem_ctrls.rdQLenPdf::5                       4                       # What read queue length does an incoming req see
system.mem_ctrls.rdQLenPdf::6                       0                       # What read queue length does an incoming req see
system.mem_ctrls.rdQLenPdf::7                       0                       # What read queue length does an incoming req see
system.mem_ctrls.rdQLenPdf::8                       0                       # What read queue length does an incoming req see
system.mem_ctrls.rdQLenPdf::9                       0                       # What read queue length does an incoming req see
system.mem_ctrls.rdQLenPdf::10                      0                       # What read queue length does an incoming req see
system.mem_ctrls.rdQLenPdf::11                      0                       # What read queue length does an incoming req see
system.mem_ctrls.rdQLenPdf::12                      0                       # What read queue length does an incoming req see
system.mem_ctrls.rdQLenPdf::13                      0                       # What read queue length does an incoming req see
system.mem_ctrls.rdQLenPdf::14                      0                       # What read queue length does an incoming req see
system.mem_ctrls.rdQLenPdf::15                      0                       # What read queue length does an incoming req see
system.mem_ctrls.rdQLenPdf::16                      0                       # What read queue length does an incoming req see
system.mem_ctrls.rdQLenPdf::17                      0                       # What read queue length does an incoming req see
system.mem_ctrls.rdQLenPdf::18                      0                       # What read queue length does an incoming req see
system.mem_ctrls.rdQLenPdf::19                      0                       # What read queue length does an incoming req see
system.mem_ctrls.rdQLenPdf::20                      0                       # What read queue length does an incoming req see
system.mem_ctrls.rdQLenPdf::21                      0                       # What read queue length does an incoming req see
system.mem_ctrls.rdQLenPdf::22                      0                       # What read queue length does an incoming req see
system.mem_ctrls.rdQLenPdf::23                      0                       # What read queue length does an incoming req see
system.mem_ctrls.rdQLenPdf::24                      0                       # What read queue length does an incoming req see
system.mem_ctrls.rdQLenPdf::25                      0                       # What read queue length does an incoming req see
system.mem_ctrls.rdQLenPdf::26                      0                       # What read queue length does an incoming req see
system.mem_ctrls.rdQLenPdf::27                      0                       # What read queue length does an incoming req see
system.mem_ctrls.rdQLenPdf::28                      0                       # What read queue length does an incoming req see
system.mem_ctrls.rdQLenPdf::29                      0                       # What read queue length does an incoming req see
system.mem_ctrls.rdQLenPdf::30                      0                       # What read queue length does an incoming req see
system.mem_ctrls.rdQLenPdf::31                      0                       # What read queue length does an incoming req see
system.mem_ctrls.wrQLenPdf::0                       1                       # What write queue length does an incoming req see
system.mem_ctrls.wrQLenPdf::1                       1                       # What write queue length does an incoming req see
system.mem_ctrls.wrQLenPdf::2                       1                       # What write queue length does an incoming req see
system.mem_ctrls.wrQLenPdf::3                       1                       # What write queue length does an incoming req see
system.mem_ctrls.wrQLenPdf::4                       1                       # What write queue length does an incoming req see
system.mem_ctrls.wrQLenPdf::5                       1                       # What write queue length does an incoming req see
system.mem_ctrls.wrQLenPdf::6                       1                       # What write queue length does an incoming req see
system.mem_ctrls.wrQLenPdf::7                       1                       # What write queue length does an incoming req see
system.mem_ctrls.wrQLenPdf::8                       1                       # What write queue length does an incoming req see
system.mem_ctrls.wrQLenPdf::9                       1                       # What write queue length does an incoming req see
system.mem_ctrls.wrQLenPdf::10                      1                       # What write queue length does an incoming req see
system.mem_ctrls.wrQLenPdf::11                      1                       # What write queue length does an incoming req see
system.mem_ctrls.wrQLenPdf::12                      1                       # What write queue length does an incoming req see
system.mem_ctrls.wrQLenPdf::13                      1                       # What write queue length does an incoming req see
system.mem_ctrls.wrQLenPdf::14                      1                       # What write queue length does an incoming req see
system.mem_ctrls.wrQLenPdf::15                     39                       # What write queue length does an incoming req see
system.mem_ctrls.wrQLenPdf::16                     47                       # What write queue length does an incoming req see
system.mem_ctrls.wrQLenPdf::17                    270                       # What write queue length does an incoming req see
system.mem_ctrls.wrQLenPdf::18                    412                       # What write queue length does an incoming req see
system.mem_ctrls.wrQLenPdf::19                    530                       # What write queue length does an incoming req see
system.mem_ctrls.wrQLenPdf::20                    609                       # What write queue length does an incoming req see
system.mem_ctrls.wrQLenPdf::21                    629                       # What write queue length does an incoming req see
system.mem_ctrls.wrQLenPdf::22                    610                       # What write queue length does an incoming req see
system.mem_ctrls.wrQLenPdf::23                    605                       # What write queue length does an incoming req see
system.mem_ctrls.wrQLenPdf::24                    620                       # What write queue length does an incoming req see
system.mem_ctrls.wrQLenPdf::25                    625                       # What write queue length does an incoming req see
system.mem_ctrls.wrQLenPdf::26                    715                       # What write queue length does an incoming req see
system.mem_ctrls.wrQLenPdf::27                    641                       # What write queue length does an incoming req see
system.mem_ctrls.wrQLenPdf::28                    634                       # What write queue length does an incoming req see
system.mem_ctrls.wrQLenPdf::29                    678                       # What write queue length does an incoming req see
system.mem_ctrls.wrQLenPdf::30                    625                       # What write queue length does an incoming req see
system.mem_ctrls.wrQLenPdf::31                    613                       # What write queue length does an incoming req see
system.mem_ctrls.wrQLenPdf::32                    592                       # What write queue length does an incoming req see
system.mem_ctrls.wrQLenPdf::33                      3                       # What write queue length does an incoming req see
system.mem_ctrls.wrQLenPdf::34                      1                       # What write queue length does an incoming req see
system.mem_ctrls.wrQLenPdf::35                      0                       # What write queue length does an incoming req see
system.mem_ctrls.wrQLenPdf::36                      0                       # What write queue length does an incoming req see
system.mem_ctrls.wrQLenPdf::37                      0                       # What write queue length does an incoming req see
system.mem_ctrls.wrQLenPdf::38                      0                       # What write queue length does an incoming req see
system.mem_ctrls.wrQLenPdf::39                      0                       # What write queue length does an incoming req see
system.mem_ctrls.wrQLenPdf::40                      0                       # What write queue length does an incoming req see
system.mem_ctrls.wrQLenPdf::41                      0                       # What write queue length does an incoming req see
system.mem_ctrls.wrQLenPdf::42                      0                       # What write queue length does an incoming req see
system.mem_ctrls.wrQLenPdf::43                      0                       # What write queue length does an incoming req see
system.mem_ctrls.wrQLenPdf::44                      0                       # What write queue length does an incoming req see
system.mem_ctrls.wrQLenPdf::45                      0                       # What write queue length does an incoming req see
system.mem_ctrls.wrQLenPdf::46                      0                       # What write queue length does an incoming req see
system.mem_ctrls.wrQLenPdf::47                      0                       # What write queue length does an incoming req see
system.mem_ctrls.wrQLenPdf::48                      0                       # What write queue length does an incoming req see
system.mem_ctrls.wrQLenPdf::49                      0                       # What write queue length does an incoming req see
system.mem_ctrls.wrQLenPdf::50                      0                       # What write queue length does an incoming req see
system.mem_ctrls.wrQLenPdf::51                      0                       # What write queue length does an incoming req see
system.mem_ctrls.wrQLenPdf::52                      0                       # What write queue length does an incoming req see
system.mem_ctrls.wrQLenPdf::53                      0                       # What write queue length does an incoming req see
system.mem_ctrls.wrQLenPdf::54                      0                       # What write queue length does an incoming req see
system.mem_ctrls.wrQLenPdf::55                      0                       # What write queue length does an incoming req see
system.mem_ctrls.wrQLenPdf::56                      0                       # What write queue length does an incoming req see
system.mem_ctrls.wrQLenPdf::57                      0                       # What write queue length does an incoming req see
system.mem_ctrls.wrQLenPdf::58                      0                       # What write queue length does an incoming req see
system.mem_ctrls.wrQLenPdf::59                      0                       # What write queue length does an incoming req see
system.mem_ctrls.wrQLenPdf::60                      0                       # What write queue length does an incoming req see
system.mem_ctrls.wrQLenPdf::61                      0                       # What write queue length does an incoming req see
system.mem_ctrls.wrQLenPdf::62                      0                       # What write queue length does an incoming req see
system.mem_ctrls.wrQLenPdf::63                      0                       # What write queue length does an incoming req see
system.mem_ctrls.bytesPerActivate::samples         7975                       # Bytes accessed per row activation
system.mem_ctrls.bytesPerActivate::mean    257.789592                       # Bytes accessed per row activation
system.mem_ctrls.bytesPerActivate::gmean   149.751871                       # Bytes accessed per row activation
system.mem_ctrls.bytesPerActivate::stdev   306.691096                       # Bytes accessed per row activation
system.mem_ctrls.bytesPerActivate::0-127         3648     45.74%     45.74% # Bytes accessed per row activation
system.mem_ctrls.bytesPerActivate::128-255         1957     24.54%     70.28% # Bytes accessed per row activation
system.mem_ctrls.bytesPerActivate::256-383          679      8.51%     78.80% # Bytes accessed per row activation
system.mem_ctrls.bytesPerActivate::384-511          314      3.94%     82.73% # Bytes accessed per row activation
system.mem_ctrls.bytesPerActivate::512-639          232      2.91%     85.64% # Bytes accessed per row activation
system.mem_ctrls.bytesPerActivate::640-767          143      1.79%     87.44% # Bytes accessed per row activation
system.mem_ctrls.bytesPerActivate::768-895          126      1.58%     89.02% # Bytes accessed per row activation
system.mem_ctrls.bytesPerActivate::896-1023          102      1.28%     90.29% # Bytes accessed per row activation
system.mem_ctrls.bytesPerActivate::1024-1151          774      9.71%    100.00% # Bytes accessed per row activation
system.mem_ctrls.bytesPerActivate::total         7975                       # Bytes accessed per row activation
system.mem_ctrls.rdPerTurnAround::samples          587                       # Reads before turning the bus around for writes
system.mem_ctrls.rdPerTurnAround::mean      38.621806                       # Reads before turning the bus around for writes
system.mem_ctrls.rdPerTurnAround::gmean     31.813408                       # Reads before turning the bus around for writes
system.mem_ctrls.rdPerTurnAround::stdev     27.284246                       # Reads before turning the bus around for writes
system.mem_ctrls.rdPerTurnAround::8-15             42      7.16%      7.16% # Reads before turning the bus around for writes
system.mem_ctrls.rdPerTurnAround::16-23           178     30.32%     37.48% # Reads before turning the bus around for writes
system.mem_ctrls.rdPerTurnAround::24-31            69     11.75%     49.23% # Reads before turning the bus around for writes
system.mem_ctrls.rdPerTurnAround::32-39            74     12.61%     61.84% # Reads before turning the bus around for writes
system.mem_ctrls.rdPerTurnAround::40-47            67     11.41%     73.25% # Reads before turning the bus around for writes
system.mem_ctrls.rdPerTurnAround::48-55            49      8.35%     81.60% # Reads before turning the bus around for writes
system.mem_ctrls.rdPerTurnAround::56-63            21      3.58%     85.18% # Reads before turning the bus around for writes
system.mem_ctrls.rdPerTurnAround::64-71            27      4.60%     89.78% # Reads before turning the bus around for writes
system.mem_ctrls.rdPerTurnAround::72-79            18      3.07%     92.84% # Reads before turning the bus around for writes
system.mem_ctrls.rdPerTurnAround::80-87            14      2.39%     95.23% # Reads before turning the bus around for writes
system.mem_ctrls.rdPerTurnAround::88-95             6      1.02%     96.25% # Reads before turning the bus around for writes
system.mem_ctrls.rdPerTurnAround::96-103            5      0.85%     97.10% # Reads before turning the bus around for writes
system.mem_ctrls.rdPerTurnAround::104-111            4      0.68%     97.79% # Reads before turning the bus around for writes
system.mem_ctrls.rdPerTurnAround::112-119            5      0.85%     98.64% # Reads before turning the bus around for writes
system.mem_ctrls.rdPerTurnAround::120-127            2      0.34%     98.98% # Reads before turning the bus around for writes
system.mem_ctrls.rdPerTurnAround::136-143            2      0.34%     99.32% # Reads before turning the bus around for writes
system.mem_ctrls.rdPerTurnAround::160-167            1      0.17%     99.49% # Reads before turning the bus around for writes
system.mem_ctrls.rdPerTurnAround::184-191            1      0.17%     99.66% # Reads before turning the bus around for writes
system.mem_ctrls.rdPerTurnAround::208-215            1      0.17%     99.83% # Reads before turning the bus around for writes
system.mem_ctrls.rdPerTurnAround::248-255            1      0.17%    100.00% # Reads before turning the bus around for writes
system.mem_ctrls.rdPerTurnAround::total           587                       # Reads before turning the bus around for writes
system.mem_ctrls.wrPerTurnAround::samples          587                       # Writes before turning the bus around for reads
system.mem_ctrls.wrPerTurnAround::mean      16.173765                       # Writes before turning the bus around for reads
system.mem_ctrls.wrPerTurnAround::gmean     16.163835                       # Writes before turning the bus around for reads
system.mem_ctrls.wrPerTurnAround::stdev      0.590418                       # Writes before turning the bus around for reads
system.mem_ctrls.wrPerTurnAround::16              535     91.14%     91.14% # Writes before turning the bus around for reads
system.mem_ctrls.wrPerTurnAround::17               10      1.70%     92.84% # Writes before turning the bus around for reads
system.mem_ctrls.wrPerTurnAround::18               36      6.13%     98.98% # Writes before turning the bus around for reads
system.mem_ctrls.wrPerTurnAround::19                4      0.68%     99.66% # Writes before turning the bus around for reads
system.mem_ctrls.wrPerTurnAround::20                2      0.34%    100.00% # Writes before turning the bus around for reads
system.mem_ctrls.wrPerTurnAround::total           587                       # Writes before turning the bus around for reads
system.mem_ctrls.totQLat                    405225750                       # Total ticks spent queuing
system.mem_ctrls.totMemAccLat               830363250                       # Total ticks spent from burst creation until serviced by the DRAM
system.mem_ctrls.totBusLat                  113370000                       # Total ticks spent in databus transfers
system.mem_ctrls.avgQLat                     17871.82                       # Average queueing delay per DRAM burst
system.mem_ctrls.avgBusLat                    5000.00                       # Average bus latency per DRAM burst
system.mem_ctrls.avgMemAccLat                36621.82                       # Average memory access latency per DRAM burst
system.mem_ctrls.avgRdBW                      1160.48                       # Average DRAM read bandwidth in MiByte/s
system.mem_ctrls.avgWrBW                       485.91                       # Average achieved write bandwidth in MiByte/s
system.mem_ctrls.avgRdBWSys                   1163.44                       # Average system read bandwidth in MiByte/s
system.mem_ctrls.avgWrBWSys                    486.99                       # Average system write bandwidth in MiByte/s
system.mem_ctrls.peakBW                      12800.00                       # Theoretical peak bandwidth in MiByte/s
system.mem_ctrls.busUtil                        12.86                       # Data bus utilization in percentage
system.mem_ctrls.busUtilRead                     9.07                       # Data bus utilization in percentage for reads
system.mem_ctrls.busUtilWrite                    3.80                       # Data bus utilization in percentage for writes
system.mem_ctrls.avgRdQLen                       1.74                       # Average read queue length when enqueuing
system.mem_ctrls.avgWrQLen                      25.70                       # Average write queue length when enqueuing
system.mem_ctrls.readRowHits                    17134                       # Number of row buffer hits during reads
system.mem_ctrls.writeRowHits                    7045                       # Number of row buffer hits during writes
system.mem_ctrls.readRowHitRate                 75.57                       # Row buffer hit rate for reads
system.mem_ctrls.writeRowHitRate                74.06                       # Row buffer hit rate for writes
system.mem_ctrls.avgGap                      38776.80                       # Average gap between requests
system.mem_ctrls.pageHitRate                    75.12                       # Row buffer hit rate, read and write combined
system.mem_ctrls_0.actEnergy                 29680560                       # Energy for activate commands per rank (pJ)
system.mem_ctrls_0.preEnergy                 16194750                       # Energy for precharge commands per rank (pJ)
system.mem_ctrls_0.readEnergy                85893600                       # Energy for read commands per rank (pJ)
system.mem_ctrls_0.writeEnergy               37616400                       # Energy for write commands per rank (pJ)
system.mem_ctrls_0.refreshEnergy             81369600                       # Energy for refresh commands per rank (pJ)
system.mem_ctrls_0.actBackEnergy            811548900                       # Energy for active background per rank (pJ)
system.mem_ctrls_0.preBackEnergy             35751000                       # Energy for precharge background per rank (pJ)
system.mem_ctrls_0.totalEnergy             1098054810                       # Total energy per rank (pJ)
system.mem_ctrls_0.averagePower            881.221458                       # Core power per rank (mW)
system.mem_ctrls_0.memoryStateTime::IDLE     54829250                       # Time in different power states
system.mem_ctrls_0.memoryStateTime::REF      41600000                       # Time in different power states
system.mem_ctrls_0.memoryStateTime::PRE_PDN            0                       # Time in different power states
system.mem_ctrls_0.memoryStateTime::ACT    1149644500                       # Time in different power states
system.mem_ctrls_0.memoryStateTime::ACT_PDN            0                       # Time in different power states
system.mem_ctrls_1.actEnergy                 30413880                       # Energy for activate commands per rank (pJ)
system.mem_ctrls_1.preEnergy                 16594875                       # Energy for precharge commands per rank (pJ)
system.mem_ctrls_1.readEnergy                90394200                       # Energy for read commands per rank (pJ)
system.mem_ctrls_1.writeEnergy               23580720                       # Energy for write commands per rank (pJ)
system.mem_ctrls_1.refreshEnergy             81369600                       # Energy for refresh commands per rank (pJ)
system.mem_ctrls_1.actBackEnergy            830230650                       # Energy for active background per rank (pJ)
system.mem_ctrls_1.preBackEnergy             19363500                       # Energy for precharge background per rank (pJ)
system.mem_ctrls_1.totalEnergy             1091947425                       # Total energy per rank (pJ)
system.mem_ctrls_1.averagePower            876.320101                       # Core power per rank (mW)
system.mem_ctrls_1.memoryStateTime::IDLE     27322250                       # Time in different power states
system.mem_ctrls_1.memoryStateTime::REF      41600000                       # Time in different power states
system.mem_ctrls_1.memoryStateTime::PRE_PDN            0                       # Time in different power states
system.mem_ctrls_1.memoryStateTime::ACT    1177530750                       # Time in different power states
system.mem_ctrls_1.memoryStateTime::ACT_PDN            0                       # Time in different power states
system.cpu_voltage_domain.voltage                   1                       # Voltage in Volts
system.cpu_clk_domain.clock                       500                       # Clock period in ticks
system.cpu.dtb.fetch_hits                           0                       # ITB hits
system.cpu.dtb.fetch_misses                         0                       # ITB misses
system.cpu.dtb.fetch_acv                            0                       # ITB acv
system.cpu.dtb.fetch_accesses                       0                       # ITB accesses
system.cpu.dtb.read_hits                            0                       # DTB read hits
system.cpu.dtb.read_misses                          0                       # DTB read misses
system.cpu.dtb.read_acv                             0                       # DTB read access violations
system.cpu.dtb.read_accesses                        0                       # DTB read accesses
system.cpu.dtb.write_hits                           0                       # DTB write hits
system.cpu.dtb.write_misses                         0                       # DTB write misses
system.cpu.dtb.write_acv                            0                       # DTB write access violations
system.cpu.dtb.write_accesses                       0                       # DTB write accesses
system.cpu.dtb.data_hits                            0                       # DTB hits
system.cpu.dtb.data_misses                          0                       # DTB misses
system.cpu.dtb.data_acv                             0                       # DTB access violations
system.cpu.dtb.data_accesses                        0                       # DTB accesses
system.cpu.itb.fetch_hits                           0                       # ITB hits
system.cpu.itb.fetch_misses                         0                       # ITB misses
system.cpu.itb.fetch_acv                            0                       # ITB acv
system.cpu.itb.fetch_accesses                       0                       # ITB accesses
system.cpu.itb.read_hits                            0                       # DTB read hits
system.cpu.itb.read_misses                          0                       # DTB read misses
system.cpu.itb.read_acv                             0                       # DTB read access violations
system.cpu.itb.read_accesses                        0                       # DTB read accesses
system.cpu.itb.write_hits                           0                       # DTB write hits
system.cpu.itb.write_misses                         0                       # DTB write misses
system.cpu.itb.write_acv                            0                       # DTB write access violations
system.cpu.itb.write_accesses                       0                       # DTB write accesses
system.cpu.itb.data_hits                            0                       # DTB hits
system.cpu.itb.data_misses                          0                       # DTB misses
system.cpu.itb.data_acv                             0                       # DTB access violations
system.cpu.itb.data_accesses                        0                       # DTB accesses
system.cpu.numCycles                                0                       # number of cpu cycles simulated
system.cpu.numWorkItemsStarted                      0                       # number of work items this cpu started
system.cpu.numWorkItemsCompleted                    0                       # number of work items this cpu completed
system.cpu.committedInsts                           0                       # Number of instructions committed
system.cpu.committedOps                             0                       # Number of ops (including micro ops) committed
system.cpu.num_int_alu_accesses                     0                       # Number of integer alu accesses
system.cpu.num_fp_alu_accesses                      0                       # Number of float alu accesses
system.cpu.num_func_calls                           0                       # number of times a function call or return occured
system.cpu.num_conditional_control_insts            0                       # number of instructions that are conditional controls
system.cpu.num_int_insts                            0                       # number of integer instructions
system.cpu.num_fp_insts                             0                       # number of float instructions
system.cpu.num_int_register_reads                   0                       # number of times the integer registers were read
system.cpu.num_int_register_writes                  0                       # number of times the integer registers were written
system.cpu.num_fp_register_reads                    0                       # number of times the floating registers were read
system.cpu.num_fp_register_writes                   0                       # number of times the floating registers were written
system.cpu.num_mem_refs                             0                       # number of memory refs
system.cpu.num_load_insts                           0                       # Number of load instructions
system.cpu.num_store_insts                          0                       # Number of store instructions
system.cpu.num_idle_cycles                          0                       # Number of idle cycles
system.cpu.num_busy_cycles                          0                       # Number of busy cycles
system.cpu.not_idle_fraction                        1                       # Percentage of non-idle cycles
system.cpu.idle_fraction                            0                       # Percentage of idle cycles
system.cpu.op_class::No_OpClass                     0                       # Class of executed instruction
system.cpu.op_class::IntAlu                         0                       # Class of executed instruction
system.cpu.op_class::IntMult                        0                       # Class of executed instruction
system.cpu.op_class::IntDiv                         0                       # Class of executed instruction
system.cpu.op_class::FloatAdd                       0                       # Class of executed instruction
system.cpu.op_class::FloatCmp                       0                       # Class of executed instruction
system.cpu.op_class::FloatCvt                       0                       # Class of executed instruction
system.cpu.op_class::FloatMult                      0                       # Class of executed instruction
system.cpu.op_class::FloatDiv                       0                       # Class of executed instruction
system.cpu.op_class::FloatSqrt                      0                       # Class of executed instruction
system.cpu.op_class::SimdAdd                        0                       # Class of executed instruction
system.cpu.op_class::SimdAddAcc                     0                       # Class of executed instruction
system.cpu.op_class::SimdAlu                        0                       # Class of executed instruction
system.cpu.op_class::SimdCmp                        0                       # Class of executed instruction
system.cpu.op_class::SimdCvt                        0                       # Class of executed instruction
system.cpu.op_class::SimdMisc                       0                       # Class of executed instruction
system.cpu.op_class::SimdMult                       0                       # Class of executed instruction
system.cpu.op_class::SimdMultAcc                    0                       # Class of executed instruction
system.cpu.op_class::SimdShift                      0                       # Class of executed instruction
system.cpu.op_class::SimdShiftAcc                   0                       # Class of executed instruction
system.cpu.op_class::SimdSqrt                       0                       # Class of executed instruction
system.cpu.op_class::SimdFloatAdd                   0                       # Class of executed instruction
system.cpu.op_class::SimdFloatAlu                   0                       # Class of executed instruction
system.cpu.op_class::SimdFloatCmp                   0                       # Class of executed instruction
system.cpu.op_class::SimdFloatCvt                   0                       # Class of executed instruction
system.cpu.op_class::SimdFloatDiv                   0                       # Class of executed instruction
system.cpu.op_class::SimdFloatMisc                  0                       # Class of executed instruction
system.cpu.op_class::SimdFloatMult                  0                       # Class of executed instruction
system.cpu.op_class::SimdFloatMultAcc               0                       # Class of executed instruction
system.cpu.op_class::SimdFloatSqrt                  0                       # Class of executed instruction
system.cpu.op_class::MemRead                        0                       # Class of executed instruction
system.cpu.op_class::MemWrite                       0                       # Class of executed instruction
system.cpu.op_class::IprAccess                      0                       # Class of executed instruction
system.cpu.op_class::InstPrefetch                   0                       # Class of executed instruction
system.cpu.op_class::total                          0                       # Class of executed instruction
system.cpu.kern.inst.arm                            0                       # number of arm instructions executed
system.cpu.kern.inst.quiesce                        0                       # number of quiesce instructions executed
system.cpu.kern.inst.hwrei                       2782                       # number of hwrei instructions executed
system.cpu.kern.ipl_count::0                      635     49.11%     49.11% # number of times we switched to this ipl
system.cpu.kern.ipl_count::22                       1      0.08%     49.19% # number of times we switched to this ipl
system.cpu.kern.ipl_count::31                     657     50.81%    100.00% # number of times we switched to this ipl
system.cpu.kern.ipl_count::total                 1293                       # number of times we switched to this ipl
system.cpu.kern.ipl_good::0                       633     49.96%     49.96% # number of times we switched to this ipl from a different ipl
system.cpu.kern.ipl_good::22                        1      0.08%     50.04% # number of times we switched to this ipl from a different ipl
system.cpu.kern.ipl_good::31                      633     49.96%    100.00% # number of times we switched to this ipl from a different ipl
system.cpu.kern.ipl_good::total                  1267                       # number of times we switched to this ipl from a different ipl
system.cpu.kern.ipl_ticks::0               1137883000     91.13%     91.13% # number of cycles we spent at this ipl
system.cpu.kern.ipl_ticks::22                 1443000      0.12%     91.25% # number of cycles we spent at this ipl
system.cpu.kern.ipl_ticks::31               109257000      8.75%    100.00% # number of cycles we spent at this ipl
system.cpu.kern.ipl_ticks::total           1248583000                       # number of cycles we spent at this ipl
system.cpu.kern.ipl_used::0                  0.996850                       # fraction of swpipl calls that actually changed the ipl
system.cpu.kern.ipl_used::22                        1                       # fraction of swpipl calls that actually changed the ipl
system.cpu.kern.ipl_used::31                 0.963470                       # fraction of swpipl calls that actually changed the ipl
system.cpu.kern.ipl_used::total              0.979892                       # fraction of swpipl calls that actually changed the ipl
system.cpu.kern.syscall::2                          1      5.56%      5.56% # number of syscalls executed
system.cpu.kern.syscall::3                          2     11.11%     16.67% # number of syscalls executed
system.cpu.kern.syscall::6                          2     11.11%     27.78% # number of syscalls executed
system.cpu.kern.syscall::17                         1      5.56%     33.33% # number of syscalls executed
system.cpu.kern.syscall::19                         1      5.56%     38.89% # number of syscalls executed
system.cpu.kern.syscall::33                         1      5.56%     44.44% # number of syscalls executed
system.cpu.kern.syscall::45                         3     16.67%     61.11% # number of syscalls executed
system.cpu.kern.syscall::48                         1      5.56%     66.67% # number of syscalls executed
system.cpu.kern.syscall::59                         1      5.56%     72.22% # number of syscalls executed
system.cpu.kern.syscall::71                         4     22.22%     94.44% # number of syscalls executed
system.cpu.kern.syscall::74                         1      5.56%    100.00% # number of syscalls executed
system.cpu.kern.syscall::total                     18                       # number of syscalls executed
system.cpu.kern.callpal::swpctx                   118      8.09%      8.09% # number of callpals executed
system.cpu.kern.callpal::tbi                        6      0.41%      8.50% # number of callpals executed
system.cpu.kern.callpal::swpipl                  1108     75.99%     84.50% # number of callpals executed
system.cpu.kern.callpal::rdps                       3      0.21%     84.71% # number of callpals executed
system.cpu.kern.callpal::wrusp                      1      0.07%     84.77% # number of callpals executed
system.cpu.kern.callpal::rdusp                      1      0.07%     84.84% # number of callpals executed
system.cpu.kern.callpal::rti                      184     12.62%     97.46% # number of callpals executed
system.cpu.kern.callpal::callsys                   33      2.26%     99.73% # number of callpals executed
system.cpu.kern.callpal::imb                        4      0.27%    100.00% # number of callpals executed
system.cpu.kern.callpal::total                   1458                       # number of callpals executed
system.cpu.kern.mode_switch::kernel               302                       # number of protection mode switches
system.cpu.kern.mode_switch::user                 182                       # number of protection mode switches
system.cpu.kern.mode_switch::idle                   0                       # number of protection mode switches
system.cpu.kern.mode_good::kernel                 182                      
system.cpu.kern.mode_good::user                   182                      
system.cpu.kern.mode_good::idle                     0                      
system.cpu.kern.mode_switch_good::kernel     0.602649                       # fraction of useful protection mode switches
system.cpu.kern.mode_switch_good::user              1                       # fraction of useful protection mode switches
system.cpu.kern.mode_switch_good::idle            nan                       # fraction of useful protection mode switches
system.cpu.kern.mode_switch_good::total      0.752066                       # fraction of useful protection mode switches
system.cpu.kern.mode_ticks::kernel          875263500     70.10%     70.10% # number of ticks spent at the given mode
system.cpu.kern.mode_ticks::user            373312500     29.90%    100.00% # number of ticks spent at the given mode
system.cpu.kern.mode_ticks::idle                    0      0.00%    100.00% # number of ticks spent at the given mode
system.cpu.kern.swap_context                      118                       # number of times the context was actually changed
system.cpu.dcache.tags.replacements             18341                       # number of replacements
system.cpu.dcache.tags.tagsinuse                  512                       # Cycle average of tags in use
system.cpu.dcache.tags.total_refs              200494                       # Total number of references to valid blocks.
system.cpu.dcache.tags.sampled_refs             18341                       # Sample count of references to valid blocks.
system.cpu.dcache.tags.avg_refs             10.931465                       # Average number of references to valid blocks.
system.cpu.dcache.tags.warmup_cycle                 0                       # Cycle when the warmup percentage was hit.
system.cpu.dcache.tags.occ_blocks::cpu.data    23.806142                       # Average occupied blocks per requestor
system.cpu.dcache.tags.occ_blocks::switch_cpus.data   488.193858                       # Average occupied blocks per requestor
system.cpu.dcache.tags.occ_percent::cpu.data     0.046496                       # Average percentage of cache occupancy
system.cpu.dcache.tags.occ_percent::switch_cpus.data     0.953504                       # Average percentage of cache occupancy
system.cpu.dcache.tags.occ_percent::total            1                       # Average percentage of cache occupancy
system.cpu.dcache.tags.occ_task_id_blocks::1024          512                       # Occupied blocks per task id
system.cpu.dcache.tags.age_task_id_blocks_1024::0           94                       # Occupied blocks per task id
system.cpu.dcache.tags.age_task_id_blocks_1024::1          361                       # Occupied blocks per task id
system.cpu.dcache.tags.age_task_id_blocks_1024::2           57                       # Occupied blocks per task id
system.cpu.dcache.tags.occ_task_id_percent::1024            1                       # Percentage of cache occupancy per task id
system.cpu.dcache.tags.tag_accesses           1188353                       # Number of tag accesses
system.cpu.dcache.tags.data_accesses          1188353                       # Number of data accesses
system.cpu.dcache.ReadReq_hits::switch_cpus.data       134390                       # number of ReadReq hits
system.cpu.dcache.ReadReq_hits::total          134390                       # number of ReadReq hits
system.cpu.dcache.WriteReq_hits::switch_cpus.data        58676                       # number of WriteReq hits
system.cpu.dcache.WriteReq_hits::total          58676                       # number of WriteReq hits
system.cpu.dcache.LoadLockedReq_hits::switch_cpus.data         2216                       # number of LoadLockedReq hits
system.cpu.dcache.LoadLockedReq_hits::total         2216                       # number of LoadLockedReq hits
system.cpu.dcache.StoreCondReq_hits::switch_cpus.data         2375                       # number of StoreCondReq hits
system.cpu.dcache.StoreCondReq_hits::total         2375                       # number of StoreCondReq hits
system.cpu.dcache.demand_hits::switch_cpus.data       193066                       # number of demand (read+write) hits
system.cpu.dcache.demand_hits::total           193066                       # number of demand (read+write) hits
system.cpu.dcache.overall_hits::switch_cpus.data       193066                       # number of overall hits
system.cpu.dcache.overall_hits::total          193066                       # number of overall hits
system.cpu.dcache.ReadReq_misses::switch_cpus.data        26874                       # number of ReadReq misses
system.cpu.dcache.ReadReq_misses::total         26874                       # number of ReadReq misses
system.cpu.dcache.WriteReq_misses::switch_cpus.data        67559                       # number of WriteReq misses
system.cpu.dcache.WriteReq_misses::total        67559                       # number of WriteReq misses
system.cpu.dcache.LoadLockedReq_misses::switch_cpus.data          410                       # number of LoadLockedReq misses
system.cpu.dcache.LoadLockedReq_misses::total          410                       # number of LoadLockedReq misses
system.cpu.dcache.StoreCondReq_misses::switch_cpus.data            3                       # number of StoreCondReq misses
system.cpu.dcache.StoreCondReq_misses::total            3                       # number of StoreCondReq misses
system.cpu.dcache.demand_misses::switch_cpus.data        94433                       # number of demand (read+write) misses
system.cpu.dcache.demand_misses::total          94433                       # number of demand (read+write) misses
system.cpu.dcache.overall_misses::switch_cpus.data        94433                       # number of overall misses
system.cpu.dcache.overall_misses::total         94433                       # number of overall misses
system.cpu.dcache.ReadReq_miss_latency::switch_cpus.data   1640506001                       # number of ReadReq miss cycles
system.cpu.dcache.ReadReq_miss_latency::total   1640506001                       # number of ReadReq miss cycles
system.cpu.dcache.WriteReq_miss_latency::switch_cpus.data   5004630073                       # number of WriteReq miss cycles
system.cpu.dcache.WriteReq_miss_latency::total   5004630073                       # number of WriteReq miss cycles
system.cpu.dcache.LoadLockedReq_miss_latency::switch_cpus.data     29733500                       # number of LoadLockedReq miss cycles
system.cpu.dcache.LoadLockedReq_miss_latency::total     29733500                       # number of LoadLockedReq miss cycles
system.cpu.dcache.StoreCondReq_miss_latency::switch_cpus.data        60001                       # number of StoreCondReq miss cycles
system.cpu.dcache.StoreCondReq_miss_latency::total        60001                       # number of StoreCondReq miss cycles
system.cpu.dcache.demand_miss_latency::switch_cpus.data   6645136074                       # number of demand (read+write) miss cycles
system.cpu.dcache.demand_miss_latency::total   6645136074                       # number of demand (read+write) miss cycles
system.cpu.dcache.overall_miss_latency::switch_cpus.data   6645136074                       # number of overall miss cycles
system.cpu.dcache.overall_miss_latency::total   6645136074                       # number of overall miss cycles
system.cpu.dcache.ReadReq_accesses::switch_cpus.data       161264                       # number of ReadReq accesses(hits+misses)
system.cpu.dcache.ReadReq_accesses::total       161264                       # number of ReadReq accesses(hits+misses)
system.cpu.dcache.WriteReq_accesses::switch_cpus.data       126235                       # number of WriteReq accesses(hits+misses)
system.cpu.dcache.WriteReq_accesses::total       126235                       # number of WriteReq accesses(hits+misses)
system.cpu.dcache.LoadLockedReq_accesses::switch_cpus.data         2626                       # number of LoadLockedReq accesses(hits+misses)
system.cpu.dcache.LoadLockedReq_accesses::total         2626                       # number of LoadLockedReq accesses(hits+misses)
system.cpu.dcache.StoreCondReq_accesses::switch_cpus.data         2378                       # number of StoreCondReq accesses(hits+misses)
system.cpu.dcache.StoreCondReq_accesses::total         2378                       # number of StoreCondReq accesses(hits+misses)
system.cpu.dcache.demand_accesses::switch_cpus.data       287499                       # number of demand (read+write) accesses
system.cpu.dcache.demand_accesses::total       287499                       # number of demand (read+write) accesses
system.cpu.dcache.overall_accesses::switch_cpus.data       287499                       # number of overall (read+write) accesses
system.cpu.dcache.overall_accesses::total       287499                       # number of overall (read+write) accesses
system.cpu.dcache.ReadReq_miss_rate::switch_cpus.data     0.166646                       # miss rate for ReadReq accesses
system.cpu.dcache.ReadReq_miss_rate::total     0.166646                       # miss rate for ReadReq accesses
system.cpu.dcache.WriteReq_miss_rate::switch_cpus.data     0.535184                       # miss rate for WriteReq accesses
system.cpu.dcache.WriteReq_miss_rate::total     0.535184                       # miss rate for WriteReq accesses
system.cpu.dcache.LoadLockedReq_miss_rate::switch_cpus.data     0.156131                       # miss rate for LoadLockedReq accesses
system.cpu.dcache.LoadLockedReq_miss_rate::total     0.156131                       # miss rate for LoadLockedReq accesses
system.cpu.dcache.StoreCondReq_miss_rate::switch_cpus.data     0.001262                       # miss rate for StoreCondReq accesses
system.cpu.dcache.StoreCondReq_miss_rate::total     0.001262                       # miss rate for StoreCondReq accesses
system.cpu.dcache.demand_miss_rate::switch_cpus.data     0.328464                       # miss rate for demand accesses
system.cpu.dcache.demand_miss_rate::total     0.328464                       # miss rate for demand accesses
system.cpu.dcache.overall_miss_rate::switch_cpus.data     0.328464                       # miss rate for overall accesses
system.cpu.dcache.overall_miss_rate::total     0.328464                       # miss rate for overall accesses
system.cpu.dcache.ReadReq_avg_miss_latency::switch_cpus.data 61044.355176                       # average ReadReq miss latency
system.cpu.dcache.ReadReq_avg_miss_latency::total 61044.355176                       # average ReadReq miss latency
system.cpu.dcache.WriteReq_avg_miss_latency::switch_cpus.data 74077.918160                       # average WriteReq miss latency
system.cpu.dcache.WriteReq_avg_miss_latency::total 74077.918160                       # average WriteReq miss latency
system.cpu.dcache.LoadLockedReq_avg_miss_latency::switch_cpus.data 72520.731707                       # average LoadLockedReq miss latency
system.cpu.dcache.LoadLockedReq_avg_miss_latency::total 72520.731707                       # average LoadLockedReq miss latency
system.cpu.dcache.StoreCondReq_avg_miss_latency::switch_cpus.data 20000.333333                       # average StoreCondReq miss latency
system.cpu.dcache.StoreCondReq_avg_miss_latency::total 20000.333333                       # average StoreCondReq miss latency
system.cpu.dcache.demand_avg_miss_latency::switch_cpus.data 70368.791355                       # average overall miss latency
system.cpu.dcache.demand_avg_miss_latency::total 70368.791355                       # average overall miss latency
system.cpu.dcache.overall_avg_miss_latency::switch_cpus.data 70368.791355                       # average overall miss latency
system.cpu.dcache.overall_avg_miss_latency::total 70368.791355                       # average overall miss latency
system.cpu.dcache.blocked_cycles::no_mshrs       389854                       # number of cycles access was blocked
system.cpu.dcache.blocked_cycles::no_targets           70                       # number of cycles access was blocked
system.cpu.dcache.blocked::no_mshrs              7601                       # number of cycles access was blocked
system.cpu.dcache.blocked::no_targets               1                       # number of cycles access was blocked
system.cpu.dcache.avg_blocked_cycles::no_mshrs    51.289830                       # average number of cycles each access was blocked
system.cpu.dcache.avg_blocked_cycles::no_targets           70                       # average number of cycles each access was blocked
system.cpu.dcache.fast_writes                       0                       # number of fast writes performed
system.cpu.dcache.cache_copies                      0                       # number of cache copies performed
system.cpu.dcache.writebacks::writebacks        11018                       # number of writebacks
system.cpu.dcache.writebacks::total             11018                       # number of writebacks
system.cpu.dcache.ReadReq_mshr_hits::switch_cpus.data        17845                       # number of ReadReq MSHR hits
system.cpu.dcache.ReadReq_mshr_hits::total        17845                       # number of ReadReq MSHR hits
system.cpu.dcache.WriteReq_mshr_hits::switch_cpus.data        58461                       # number of WriteReq MSHR hits
system.cpu.dcache.WriteReq_mshr_hits::total        58461                       # number of WriteReq MSHR hits
system.cpu.dcache.LoadLockedReq_mshr_hits::switch_cpus.data          183                       # number of LoadLockedReq MSHR hits
system.cpu.dcache.LoadLockedReq_mshr_hits::total          183                       # number of LoadLockedReq MSHR hits
system.cpu.dcache.demand_mshr_hits::switch_cpus.data        76306                       # number of demand (read+write) MSHR hits
system.cpu.dcache.demand_mshr_hits::total        76306                       # number of demand (read+write) MSHR hits
system.cpu.dcache.overall_mshr_hits::switch_cpus.data        76306                       # number of overall MSHR hits
system.cpu.dcache.overall_mshr_hits::total        76306                       # number of overall MSHR hits
system.cpu.dcache.ReadReq_mshr_misses::switch_cpus.data         9029                       # number of ReadReq MSHR misses
system.cpu.dcache.ReadReq_mshr_misses::total         9029                       # number of ReadReq MSHR misses
system.cpu.dcache.WriteReq_mshr_misses::switch_cpus.data         9098                       # number of WriteReq MSHR misses
system.cpu.dcache.WriteReq_mshr_misses::total         9098                       # number of WriteReq MSHR misses
system.cpu.dcache.LoadLockedReq_mshr_misses::switch_cpus.data          227                       # number of LoadLockedReq MSHR misses
system.cpu.dcache.LoadLockedReq_mshr_misses::total          227                       # number of LoadLockedReq MSHR misses
system.cpu.dcache.StoreCondReq_mshr_misses::switch_cpus.data            3                       # number of StoreCondReq MSHR misses
system.cpu.dcache.StoreCondReq_mshr_misses::total            3                       # number of StoreCondReq MSHR misses
system.cpu.dcache.demand_mshr_misses::switch_cpus.data        18127                       # number of demand (read+write) MSHR misses
system.cpu.dcache.demand_mshr_misses::total        18127                       # number of demand (read+write) MSHR misses
system.cpu.dcache.overall_mshr_misses::switch_cpus.data        18127                       # number of overall MSHR misses
system.cpu.dcache.overall_mshr_misses::total        18127                       # number of overall MSHR misses
system.cpu.dcache.WriteReq_mshr_uncacheable::switch_cpus.data            1                       # number of WriteReq MSHR uncacheable
system.cpu.dcache.WriteReq_mshr_uncacheable::total            1                       # number of WriteReq MSHR uncacheable
system.cpu.dcache.overall_mshr_uncacheable_misses::switch_cpus.data            1                       # number of overall MSHR uncacheable misses
system.cpu.dcache.overall_mshr_uncacheable_misses::total            1                       # number of overall MSHR uncacheable misses
system.cpu.dcache.ReadReq_mshr_miss_latency::switch_cpus.data    646288500                       # number of ReadReq MSHR miss cycles
system.cpu.dcache.ReadReq_mshr_miss_latency::total    646288500                       # number of ReadReq MSHR miss cycles
system.cpu.dcache.WriteReq_mshr_miss_latency::switch_cpus.data    773441516                       # number of WriteReq MSHR miss cycles
system.cpu.dcache.WriteReq_mshr_miss_latency::total    773441516                       # number of WriteReq MSHR miss cycles
system.cpu.dcache.LoadLockedReq_mshr_miss_latency::switch_cpus.data     15853500                       # number of LoadLockedReq MSHR miss cycles
system.cpu.dcache.LoadLockedReq_mshr_miss_latency::total     15853500                       # number of LoadLockedReq MSHR miss cycles
system.cpu.dcache.StoreCondReq_mshr_miss_latency::switch_cpus.data        55499                       # number of StoreCondReq MSHR miss cycles
system.cpu.dcache.StoreCondReq_mshr_miss_latency::total        55499                       # number of StoreCondReq MSHR miss cycles
system.cpu.dcache.demand_mshr_miss_latency::switch_cpus.data   1419730016                       # number of demand (read+write) MSHR miss cycles
system.cpu.dcache.demand_mshr_miss_latency::total   1419730016                       # number of demand (read+write) MSHR miss cycles
system.cpu.dcache.overall_mshr_miss_latency::switch_cpus.data   1419730016                       # number of overall MSHR miss cycles
system.cpu.dcache.overall_mshr_miss_latency::total   1419730016                       # number of overall MSHR miss cycles
system.cpu.dcache.WriteReq_mshr_uncacheable_latency::switch_cpus.data       223500                       # number of WriteReq MSHR uncacheable cycles
system.cpu.dcache.WriteReq_mshr_uncacheable_latency::total       223500                       # number of WriteReq MSHR uncacheable cycles
system.cpu.dcache.overall_mshr_uncacheable_latency::switch_cpus.data       223500                       # number of overall MSHR uncacheable cycles
system.cpu.dcache.overall_mshr_uncacheable_latency::total       223500                       # number of overall MSHR uncacheable cycles
system.cpu.dcache.ReadReq_mshr_miss_rate::switch_cpus.data     0.055989                       # mshr miss rate for ReadReq accesses
system.cpu.dcache.ReadReq_mshr_miss_rate::total     0.055989                       # mshr miss rate for ReadReq accesses
system.cpu.dcache.WriteReq_mshr_miss_rate::switch_cpus.data     0.072072                       # mshr miss rate for WriteReq accesses
system.cpu.dcache.WriteReq_mshr_miss_rate::total     0.072072                       # mshr miss rate for WriteReq accesses
system.cpu.dcache.LoadLockedReq_mshr_miss_rate::switch_cpus.data     0.086443                       # mshr miss rate for LoadLockedReq accesses
system.cpu.dcache.LoadLockedReq_mshr_miss_rate::total     0.086443                       # mshr miss rate for LoadLockedReq accesses
system.cpu.dcache.StoreCondReq_mshr_miss_rate::switch_cpus.data     0.001262                       # mshr miss rate for StoreCondReq accesses
system.cpu.dcache.StoreCondReq_mshr_miss_rate::total     0.001262                       # mshr miss rate for StoreCondReq accesses
system.cpu.dcache.demand_mshr_miss_rate::switch_cpus.data     0.063051                       # mshr miss rate for demand accesses
system.cpu.dcache.demand_mshr_miss_rate::total     0.063051                       # mshr miss rate for demand accesses
system.cpu.dcache.overall_mshr_miss_rate::switch_cpus.data     0.063051                       # mshr miss rate for overall accesses
system.cpu.dcache.overall_mshr_miss_rate::total     0.063051                       # mshr miss rate for overall accesses
system.cpu.dcache.ReadReq_avg_mshr_miss_latency::switch_cpus.data 71579.189279                       # average ReadReq mshr miss latency
system.cpu.dcache.ReadReq_avg_mshr_miss_latency::total 71579.189279                       # average ReadReq mshr miss latency
system.cpu.dcache.WriteReq_avg_mshr_miss_latency::switch_cpus.data 85012.257199                       # average WriteReq mshr miss latency
system.cpu.dcache.WriteReq_avg_mshr_miss_latency::total 85012.257199                       # average WriteReq mshr miss latency
system.cpu.dcache.LoadLockedReq_avg_mshr_miss_latency::switch_cpus.data 69839.207048                       # average LoadLockedReq mshr miss latency
system.cpu.dcache.LoadLockedReq_avg_mshr_miss_latency::total 69839.207048                       # average LoadLockedReq mshr miss latency
system.cpu.dcache.StoreCondReq_avg_mshr_miss_latency::switch_cpus.data 18499.666667                       # average StoreCondReq mshr miss latency
system.cpu.dcache.StoreCondReq_avg_mshr_miss_latency::total 18499.666667                       # average StoreCondReq mshr miss latency
system.cpu.dcache.demand_avg_mshr_miss_latency::switch_cpus.data 78321.289568                       # average overall mshr miss latency
system.cpu.dcache.demand_avg_mshr_miss_latency::total 78321.289568                       # average overall mshr miss latency
system.cpu.dcache.overall_avg_mshr_miss_latency::switch_cpus.data 78321.289568                       # average overall mshr miss latency
system.cpu.dcache.overall_avg_mshr_miss_latency::total 78321.289568                       # average overall mshr miss latency
system.cpu.dcache.WriteReq_avg_mshr_uncacheable_latency::switch_cpus.data       223500                       # average WriteReq mshr uncacheable latency
system.cpu.dcache.WriteReq_avg_mshr_uncacheable_latency::total       223500                       # average WriteReq mshr uncacheable latency
system.cpu.dcache.overall_avg_mshr_uncacheable_latency::switch_cpus.data       223500                       # average overall mshr uncacheable latency
system.cpu.dcache.overall_avg_mshr_uncacheable_latency::total       223500                       # average overall mshr uncacheable latency
system.cpu.dcache.no_allocate_misses                0                       # Number of misses that were no-allocate
system.cpu.icache.tags.replacements             10209                       # number of replacements
system.cpu.icache.tags.tagsinuse           511.729656                       # Cycle average of tags in use
system.cpu.icache.tags.total_refs              363381                       # Total number of references to valid blocks.
system.cpu.icache.tags.sampled_refs             10209                       # Sample count of references to valid blocks.
system.cpu.icache.tags.avg_refs             35.594182                       # Average number of references to valid blocks.
system.cpu.icache.tags.warmup_cycle                 0                       # Cycle when the warmup percentage was hit.
system.cpu.icache.tags.occ_blocks::cpu.inst    21.076270                       # Average occupied blocks per requestor
system.cpu.icache.tags.occ_blocks::switch_cpus.inst   490.653385                       # Average occupied blocks per requestor
system.cpu.icache.tags.occ_percent::cpu.inst     0.041165                       # Average percentage of cache occupancy
system.cpu.icache.tags.occ_percent::switch_cpus.inst     0.958307                       # Average percentage of cache occupancy
system.cpu.icache.tags.occ_percent::total     0.999472                       # Average percentage of cache occupancy
system.cpu.icache.tags.occ_task_id_blocks::1024          511                       # Occupied blocks per task id
system.cpu.icache.tags.age_task_id_blocks_1024::0           61                       # Occupied blocks per task id
system.cpu.icache.tags.age_task_id_blocks_1024::1           16                       # Occupied blocks per task id
system.cpu.icache.tags.age_task_id_blocks_1024::2          433                       # Occupied blocks per task id
system.cpu.icache.tags.age_task_id_blocks_1024::3            1                       # Occupied blocks per task id
system.cpu.icache.tags.occ_task_id_percent::1024     0.998047                       # Percentage of cache occupancy per task id
system.cpu.icache.tags.tag_accesses            339490                       # Number of tag accesses
system.cpu.icache.tags.data_accesses           339490                       # Number of data accesses
system.cpu.icache.ReadReq_hits::switch_cpus.inst       152450                       # number of ReadReq hits
system.cpu.icache.ReadReq_hits::total          152450                       # number of ReadReq hits
system.cpu.icache.demand_hits::switch_cpus.inst       152450                       # number of demand (read+write) hits
system.cpu.icache.demand_hits::total           152450                       # number of demand (read+write) hits
system.cpu.icache.overall_hits::switch_cpus.inst       152450                       # number of overall hits
system.cpu.icache.overall_hits::total          152450                       # number of overall hits
system.cpu.icache.ReadReq_misses::switch_cpus.inst        12183                       # number of ReadReq misses
system.cpu.icache.ReadReq_misses::total         12183                       # number of ReadReq misses
system.cpu.icache.demand_misses::switch_cpus.inst        12183                       # number of demand (read+write) misses
system.cpu.icache.demand_misses::total          12183                       # number of demand (read+write) misses
system.cpu.icache.overall_misses::switch_cpus.inst        12183                       # number of overall misses
system.cpu.icache.overall_misses::total         12183                       # number of overall misses
system.cpu.icache.ReadReq_miss_latency::switch_cpus.inst    764062995                       # number of ReadReq miss cycles
system.cpu.icache.ReadReq_miss_latency::total    764062995                       # number of ReadReq miss cycles
system.cpu.icache.demand_miss_latency::switch_cpus.inst    764062995                       # number of demand (read+write) miss cycles
system.cpu.icache.demand_miss_latency::total    764062995                       # number of demand (read+write) miss cycles
system.cpu.icache.overall_miss_latency::switch_cpus.inst    764062995                       # number of overall miss cycles
system.cpu.icache.overall_miss_latency::total    764062995                       # number of overall miss cycles
system.cpu.icache.ReadReq_accesses::switch_cpus.inst       164633                       # number of ReadReq accesses(hits+misses)
system.cpu.icache.ReadReq_accesses::total       164633                       # number of ReadReq accesses(hits+misses)
system.cpu.icache.demand_accesses::switch_cpus.inst       164633                       # number of demand (read+write) accesses
system.cpu.icache.demand_accesses::total       164633                       # number of demand (read+write) accesses
system.cpu.icache.overall_accesses::switch_cpus.inst       164633                       # number of overall (read+write) accesses
system.cpu.icache.overall_accesses::total       164633                       # number of overall (read+write) accesses
system.cpu.icache.ReadReq_miss_rate::switch_cpus.inst     0.074001                       # miss rate for ReadReq accesses
system.cpu.icache.ReadReq_miss_rate::total     0.074001                       # miss rate for ReadReq accesses
system.cpu.icache.demand_miss_rate::switch_cpus.inst     0.074001                       # miss rate for demand accesses
system.cpu.icache.demand_miss_rate::total     0.074001                       # miss rate for demand accesses
system.cpu.icache.overall_miss_rate::switch_cpus.inst     0.074001                       # miss rate for overall accesses
system.cpu.icache.overall_miss_rate::total     0.074001                       # miss rate for overall accesses
system.cpu.icache.ReadReq_avg_miss_latency::switch_cpus.inst 62715.504802                       # average ReadReq miss latency
system.cpu.icache.ReadReq_avg_miss_latency::total 62715.504802                       # average ReadReq miss latency
system.cpu.icache.demand_avg_miss_latency::switch_cpus.inst 62715.504802                       # average overall miss latency
system.cpu.icache.demand_avg_miss_latency::total 62715.504802                       # average overall miss latency
system.cpu.icache.overall_avg_miss_latency::switch_cpus.inst 62715.504802                       # average overall miss latency
system.cpu.icache.overall_avg_miss_latency::total 62715.504802                       # average overall miss latency
system.cpu.icache.blocked_cycles::no_mshrs         2432                       # number of cycles access was blocked
system.cpu.icache.blocked_cycles::no_targets            0                       # number of cycles access was blocked
system.cpu.icache.blocked::no_mshrs                36                       # number of cycles access was blocked
system.cpu.icache.blocked::no_targets               0                       # number of cycles access was blocked
system.cpu.icache.avg_blocked_cycles::no_mshrs    67.555556                       # average number of cycles each access was blocked
system.cpu.icache.avg_blocked_cycles::no_targets          nan                       # average number of cycles each access was blocked
system.cpu.icache.fast_writes                       0                       # number of fast writes performed
system.cpu.icache.cache_copies                      0                       # number of cache copies performed
system.cpu.icache.ReadReq_mshr_hits::switch_cpus.inst         1959                       # number of ReadReq MSHR hits
system.cpu.icache.ReadReq_mshr_hits::total         1959                       # number of ReadReq MSHR hits
system.cpu.icache.demand_mshr_hits::switch_cpus.inst         1959                       # number of demand (read+write) MSHR hits
system.cpu.icache.demand_mshr_hits::total         1959                       # number of demand (read+write) MSHR hits
system.cpu.icache.overall_mshr_hits::switch_cpus.inst         1959                       # number of overall MSHR hits
system.cpu.icache.overall_mshr_hits::total         1959                       # number of overall MSHR hits
[...]
system.switch_cpus.iew.wb_count               2660746                       # cumulative count of insts written-back
system.switch_cpus.iew.wb_producers           1407995                       # num instructions producing a value
system.switch_cpus.iew.wb_consumers           1847717                       # num instructions consuming a value
system.switch_cpus.iew.wb_penalized                 0                       # number of instrctions required to write to 'other' IQ
system.switch_cpus.iew.wb_rate               0.299198                       # insts written-back per cycle
system.switch_cpus.iew.wb_fanout             0.762019                       # average fanout of values written-back
system.switch_cpus.iew.wb_penalized_rate            0                       # fraction of instructions written-back that wrote to 'other' IQ
system.switch_cpus.commit.commitSquashedInsts       508210                       # The number of squashed insts skipped by commit
system.switch_cpus.commit.commitNonSpecStalls        43725                       # The number of times commit has been forced to stall to communicate backwards
system.switch_cpus.commit.branchMispredicts        26203                       # The number of times a branch was mispredicted
system.switch_cpus.commit.committed_per_cycle::samples      7781597                       # Number of insts commited each cycle
system.switch_cpus.commit.committed_per_cycle::mean     0.318940                       # Number of insts commited each cycle
system.switch_cpus.commit.committed_per_cycle::stdev     1.213634                       # Number of insts commited each cycle
system.switch_cpus.commit.committed_per_cycle::underflows            0      0.00%      0.00% # Number of insts commited each cycle
system.switch_cpus.commit.committed_per_cycle::0      6917182     88.89%     88.89% # Number of insts commited each cycle
system.switch_cpus.commit.committed_per_cycle::1       389456      5.00%     93.90% # Number of insts commited each cycle
system.switch_cpus.commit.committed_per_cycle::2       151586      1.95%     95.84% # Number of insts commited each cycle
system.switch_cpus.commit.committed_per_cycle::3        76359      0.98%     96.83% # Number of insts commited each cycle
system.switch_cpus.commit.committed_per_cycle::4        60678      0.78%     97.61% # Number of insts commited each cycle
system.switch_cpus.commit.committed_per_cycle::5        40116      0.52%     98.12% # Number of insts commited each cycle
system.switch_cpus.commit.committed_per_cycle::6        15871      0.20%     98.32% # Number of insts commited each cycle
system.switch_cpus.commit.committed_per_cycle::7        21156      0.27%     98.60% # Number of insts commited each cycle
system.switch_cpus.commit.committed_per_cycle::8       109193      1.40%    100.00% # Number of insts commited each cycle
system.switch_cpus.commit.committed_per_cycle::overflows            0      0.00%    100.00% # Number of insts commited each cycle
system.switch_cpus.commit.committed_per_cycle::min_value            0                       # Number of insts commited each cycle
system.switch_cpus.commit.committed_per_cycle::max_value            8                       # Number of insts commited each cycle
system.switch_cpus.commit.committed_per_cycle::total      7781597                       # Number of insts commited each cycle
system.switch_cpus.commit.committedInsts      2481859                       # Number of instructions committed
system.switch_cpus.commit.committedOps        2481859                       # Number of ops (including micro ops) committed
system.switch_cpus.commit.swp_count                 0                       # Number of s/w prefetches committed
system.switch_cpus.commit.refs                 754343                       # Number of memory references committed
system.switch_cpus.commit.loads                468114                       # Number of loads committed
system.switch_cpus.commit.membars               26719                       # Number of memory barriers committed
system.switch_cpus.commit.branches             432586                       # Number of branches committed
system.switch_cpus.commit.fp_insts               5303                       # Number of committed floating point instructions.
system.switch_cpus.commit.int_insts           2386900                       # Number of committed integer instructions.
system.switch_cpus.commit.function_calls        82088                       # Number of function calls committed.
system.switch_cpus.commit.op_class_0::No_OpClass        30732      1.24%      1.24% # Class of committed instruction
system.switch_cpus.commit.op_class_0::IntAlu      1614071     65.03%     66.27% # Class of committed instruction
system.switch_cpus.commit.op_class_0::IntMult         2632      0.11%     66.38% # Class of committed instruction
system.switch_cpus.commit.op_class_0::IntDiv            0      0.00%     66.38% # Class of committed instruction
system.switch_cpus.commit.op_class_0::FloatAdd         1491      0.06%     66.44% # Class of committed instruction
system.switch_cpus.commit.op_class_0::FloatCmp           65      0.00%     66.44% # Class of committed instruction
system.switch_cpus.commit.op_class_0::FloatCvt          130      0.01%     66.45% # Class of committed instruction
system.switch_cpus.commit.op_class_0::FloatMult            1      0.00%     66.45% # Class of committed instruction
system.switch_cpus.commit.op_class_0::FloatDiv          245      0.01%     66.46% # Class of committed instruction
system.switch_cpus.commit.op_class_0::FloatSqrt            0      0.00%     66.46% # Class of committed instruction
system.switch_cpus.commit.op_class_0::SimdAdd            0      0.00%     66.46% # Class of committed instruction
system.switch_cpus.commit.op_class_0::SimdAddAcc            0      0.00%     66.46% # Class of committed instruction
system.switch_cpus.commit.op_class_0::SimdAlu            0      0.00%     66.46% # Class of committed instruction
system.switch_cpus.commit.op_class_0::SimdCmp            0      0.00%     66.46% # Class of committed instruction
system.switch_cpus.commit.op_class_0::SimdCvt            0      0.00%     66.46% # Class of committed instruction
system.switch_cpus.commit.op_class_0::SimdMisc            0      0.00%     66.46% # Class of committed instruction
system.switch_cpus.commit.op_class_0::SimdMult            0      0.00%     66.46% # Class of committed instruction
system.switch_cpus.commit.op_class_0::SimdMultAcc            0      0.00%     66.46% # Class of committed instruction
system.switch_cpus.commit.op_class_0::SimdShift            0      0.00%     66.46% # Class of committed instruction
system.switch_cpus.commit.op_class_0::SimdShiftAcc            0      0.00%     66.46% # Class of committed instruction
system.switch_cpus.commit.op_class_0::SimdSqrt            0      0.00%     66.46% # Class of committed instruction
system.switch_cpus.commit.op_class_0::SimdFloatAdd            0      0.00%     66.46% # Class of committed instruction
system.switch_cpus.commit.op_class_0::SimdFloatAlu            0      0.00%     66.46% # Class of committed instruction
system.switch_cpus.commit.op_class_0::SimdFloatCmp            0      0.00%     66.46% # Class of committed instruction
system.switch_cpus.commit.op_class_0::SimdFloatCvt            0      0.00%     66.46% # Class of committed instruction
system.switch_cpus.commit.op_class_0::SimdFloatDiv            0      0.00%     66.46% # Class of committed instruction
system.switch_cpus.commit.op_class_0::SimdFloatMisc            0      0.00%     66.46% # Class of committed instruction
system.switch_cpus.commit.op_class_0::SimdFloatMult            0      0.00%     66.46% # Class of committed instruction
system.switch_cpus.commit.op_class_0::SimdFloatMultAcc            0      0.00%     66.46% # Class of committed instruction
system.switch_cpus.commit.op_class_0::SimdFloatSqrt            0      0.00%     66.46% # Class of committed instruction
system.switch_cpus.commit.op_class_0::MemRead       494833     19.94%     86.39% # Class of committed instruction
system.switch_cpus.commit.op_class_0::MemWrite       286662     11.55%     97.95% # Class of committed instruction
system.switch_cpus.commit.op_class_0::IprAccess        50997      2.05%    100.00% # Class of committed instruction
system.switch_cpus.commit.op_class_0::InstPrefetch            0      0.00%    100.00% # Class of committed instruction
system.switch_cpus.commit.op_class_0::total      2481859                       # Class of committed instruction
system.switch_cpus.commit.bw_lim_events        109193                       # number cycles where commit BW limit reached
system.switch_cpus.rob.rob_reads             10640170                       # The number of ROB reads
system.switch_cpus.rob.rob_writes             6067048                       # The number of ROB writes
system.switch_cpus.timesIdled                   15751                       # Number of times that the entire CPU went into an idle state and unscheduled itself
system.switch_cpus.idleCycles                 1024780                       # Total number of cycles that the CPU has spent unscheduled due to idling
system.switch_cpus.committedInsts             2451619                       # Number of Instructions Simulated
system.switch_cpus.committedOps               2451619                       # Number of Ops (including micro ops) Simulated
system.switch_cpus.cpi                       3.627365                       # CPI: Cycles Per Instruction
system.switch_cpus.cpi_total                 3.627365                       # CPI: Total CPI of All Threads
system.switch_cpus.ipc                       0.275682                       # IPC: Instructions Per Cycle
system.switch_cpus.ipc_total                 0.275682                       # IPC: Total IPC of All Threads
system.switch_cpus.int_regfile_reads          3402553                       # number of integer regfile reads
system.switch_cpus.int_regfile_writes         1928251                       # number of integer regfile writes
system.switch_cpus.fp_regfile_reads              3892                       # number of floating regfile reads
system.switch_cpus.fp_regfile_writes             3219                       # number of floating regfile writes
system.switch_cpus.misc_regfile_reads           74560                       # number of misc regfile reads
system.switch_cpus.misc_regfile_writes          44904                       # number of misc regfile writes
system.tol2bus.trans_dist::ReadReq              44450                       # Transaction distribution
system.tol2bus.trans_dist::ReadResp             44450                       # Transaction distribution
system.tol2bus.trans_dist::WriteReq              2590                       # Transaction distribution
system.tol2bus.trans_dist::WriteResp             2590                       # Transaction distribution
system.tol2bus.trans_dist::Writeback            12277                       # Transaction distribution
system.tol2bus.trans_dist::UpgradeReq               1                       # Transaction distribution
system.tol2bus.trans_dist::UpgradeResp              1                       # Transaction distribution
system.tol2bus.trans_dist::ReadExReq             9704                       # Transaction distribution
system.tol2bus.trans_dist::ReadExResp            9704                       # Transaction distribution
system.tol2bus.pkt_count_system.cpu.icache.mem_side::system.l2.cpu_side        49564                       # Packet count per connected master and slave (bytes)
system.tol2bus.pkt_count_system.cpu.dcache.mem_side::system.l2.cpu_side        76201                       # Packet count per connected master and slave (bytes)
system.tol2bus.pkt_count::total                125765                       # Packet count per connected master and slave (bytes)
system.tol2bus.pkt_size_system.cpu.icache.mem_side::system.l2.cpu_side      1585984                       # Cumulative packet size per connected master and slave (bytes)
system.tol2bus.pkt_size_system.cpu.dcache.mem_side::system.l2.cpu_side      2234776                       # Cumulative packet size per connected master and slave (bytes)
system.tol2bus.pkt_size::total                3820760                       # Cumulative packet size per connected master and slave (bytes)
system.tol2bus.snoops                               2                       # Total snoops (count)
system.tol2bus.snoop_fanout::samples            69022                       # Request fanout histogram
system.tol2bus.snoop_fanout::mean                   1                       # Request fanout histogram
system.tol2bus.snoop_fanout::stdev                  0                       # Request fanout histogram
system.tol2bus.snoop_fanout::underflows             0      0.00%      0.00% # Request fanout histogram
system.tol2bus.snoop_fanout::0                      0      0.00%      0.00% # Request fanout histogram
system.tol2bus.snoop_fanout::1                  69022    100.00%    100.00% # Request fanout histogram
system.tol2bus.snoop_fanout::2                      0      0.00%    100.00% # Request fanout histogram
system.tol2bus.snoop_fanout::overflows              0      0.00%    100.00% # Request fanout histogram
system.tol2bus.snoop_fanout::min_value              1                       # Request fanout histogram
system.tol2bus.snoop_fanout::max_value              1                       # Request fanout histogram
system.tol2bus.snoop_fanout::total              69022                       # Request fanout histogram
system.tol2bus.reqLayer0.occupancy           48083000                       # Layer occupancy (ticks)
system.tol2bus.reqLayer0.utilization              1.1                       # Layer utilization (%)
system.tol2bus.respLayer0.occupancy          39108747                       # Layer occupancy (ticks)
system.tol2bus.respLayer0.utilization             0.9                       # Layer utilization (%)
system.tol2bus.respLayer1.occupancy          44734249                       # Layer occupancy (ticks)
system.tol2bus.respLayer1.utilization             1.0                       # Layer utilization (%)
system.tsunami.ethernet.descDMAReads                0                       # Number of descriptors the device read w/ DMA
system.tsunami.ethernet.descDMAWrites               0                       # Number of descriptors the device wrote w/ DMA
system.tsunami.ethernet.descDmaReadBytes            0                       # number of descriptor bytes read w/ DMA
system.tsunami.ethernet.descDmaWriteBytes            0                       # number of descriptor bytes write w/ DMA
system.tsunami.ethernet.postedSwi                   0                       # number of software interrupts posted to CPU
system.tsunami.ethernet.coalescedSwi              nan                       # average number of Swi's coalesced into each post
system.tsunami.ethernet.totalSwi                    0                       # total number of Swi written to ISR
system.tsunami.ethernet.postedRxIdle                0                       # number of rxIdle interrupts posted to CPU
system.tsunami.ethernet.coalescedRxIdle           nan                       # average number of RxIdle's coalesced into each post
system.tsunami.ethernet.totalRxIdle                 0                       # total number of RxIdle written to ISR
system.tsunami.ethernet.postedRxOk                  0                       # number of RxOk interrupts posted to CPU
system.tsunami.ethernet.coalescedRxOk             nan                       # average number of RxOk's coalesced into each post
system.tsunami.ethernet.totalRxOk                   0                       # total number of RxOk written to ISR
system.tsunami.ethernet.postedRxDesc                0                       # number of RxDesc interrupts posted to CPU
system.tsunami.ethernet.coalescedRxDesc           nan                       # average number of RxDesc's coalesced into each post
system.tsunami.ethernet.totalRxDesc                 0                       # total number of RxDesc written to ISR
system.tsunami.ethernet.postedTxOk                  0                       # number of TxOk interrupts posted to CPU
system.tsunami.ethernet.coalescedTxOk             nan                       # average number of TxOk's coalesced into each post
system.tsunami.ethernet.totalTxOk                   0                       # total number of TxOk written to ISR
system.tsunami.ethernet.postedTxIdle                0                       # number of TxIdle interrupts posted to CPU
system.tsunami.ethernet.coalescedTxIdle           nan                       # average number of TxIdle's coalesced into each post
system.tsunami.ethernet.totalTxIdle                 0                       # total number of TxIdle written to ISR
system.tsunami.ethernet.postedTxDesc                0                       # number of TxDesc interrupts posted to CPU
system.tsunami.ethernet.coalescedTxDesc           nan                       # average number of TxDesc's coalesced into each post
system.tsunami.ethernet.totalTxDesc                 0                       # total number of TxDesc written to ISR
system.tsunami.ethernet.postedRxOrn                 0                       # number of RxOrn posted to CPU
system.tsunami.ethernet.coalescedRxOrn            nan                       # average number of RxOrn's coalesced into each post
system.tsunami.ethernet.totalRxOrn                  0                       # total number of RxOrn written to ISR
system.tsunami.ethernet.coalescedTotal            nan                       # average number of interrupts coalesced into each post
system.tsunami.ethernet.postedInterrupts            0                       # number of posts to CPU
system.tsunami.ethernet.droppedPackets              0                       # number of packets dropped
system.switch_cpus.kern.inst.arm                    0                       # number of arm instructions executed
system.switch_cpus.kern.inst.quiesce                0                       # number of quiesce instructions executed
system.switch_cpus.kern.inst.hwrei                  0                       # number of hwrei instructions executed
system.switch_cpus.kern.mode_switch::kernel            0                       # number of protection mode switches
system.switch_cpus.kern.mode_switch::user            0                       # number of protection mode switches
system.switch_cpus.kern.mode_switch::idle            0                       # number of protection mode switches
system.switch_cpus.kern.mode_good::kernel            0                      
system.switch_cpus.kern.mode_good::user             0                      
system.switch_cpus.kern.mode_good::idle             0                      
system.switch_cpus.kern.mode_switch_good::kernel          nan                       # fraction of useful protection mode switches
system.switch_cpus.kern.mode_switch_good::user          nan                       # fraction of useful protection mode switches
system.switch_cpus.kern.mode_switch_good::idle          nan                       # fraction of useful protection mode switches
system.switch_cpus.kern.mode_switch_good::total          nan                       # fraction of useful protection mode switches
system.switch_cpus.kern.mode_ticks::kernel            0                       # number of ticks spent at the given mode
system.switch_cpus.kern.mode_ticks::user            0                       # number of ticks spent at the given mode
system.switch_cpus.kern.mode_ticks::idle            0                       # number of ticks spent at the given mode
system.switch_cpus.kern.swap_context                0                       # number of times the context was actually changed

---------- End Simulation Statistics   ----------
