
---------- Begin Simulation Statistics ----------
sim_seconds                                  0.001214                       # Number of seconds simulated
sim_ticks                                  1214068000                       # Number of ticks simulated
final_tick                               2255655850000                       # Number of ticks from beginning of simulation (restored from checkpoints and never reset)
sim_freq                                 1000000000000                       # Frequency of simulated ticks
host_inst_rate                               30550748                       # Simulator instruction rate (inst/s)
host_op_rate                                 30550679                       # Simulator op (including micro ops) rate (op/s)
host_tick_rate                              378524198                       # Simulator tick rate (ticks/s)
host_mem_usage                                 729108                       # Number of bytes of host memory used
host_seconds                                     3.21                       # Real time elapsed on the host
sim_insts                                    97987200                       # Number of instructions simulated
sim_ops                                      97987200                       # Number of ops (including micro ops) simulated
system.voltage_domain.voltage                       1                       # Voltage in Volts
system.clk_domain.clock                          1000                       # Clock period in ticks
system.mem_ctrls.bytes_read::switch_cpus.inst       450048                       # Number of bytes read from this memory
system.mem_ctrls.bytes_read::switch_cpus.data      1002048                       # Number of bytes read from this memory
system.mem_ctrls.bytes_read::total            1452096                       # Number of bytes read from this memory
system.mem_ctrls.bytes_inst_read::switch_cpus.inst       450048                       # Number of instructions bytes read from this memory
system.mem_ctrls.bytes_inst_read::total        450048                       # Number of instructions bytes read from this memory
system.mem_ctrls.bytes_written::writebacks       606080                       # Number of bytes written to this memory
system.mem_ctrls.bytes_written::total          606080                       # Number of bytes written to this memory
system.mem_ctrls.num_reads::switch_cpus.inst         7032                       # Number of read requests responded to by this memory
system.mem_ctrls.num_reads::switch_cpus.data        15657                       # Number of read requests responded to by this memory
system.mem_ctrls.num_reads::total               22689                       # Number of read requests responded to by this memory
system.mem_ctrls.num_writes::writebacks          9470                       # Number of write requests responded to by this memory
system.mem_ctrls.num_writes::total               9470                       # Number of write requests responded to by this memory
system.mem_ctrls.bw_read::switch_cpus.inst    370694228                       # Total read bandwidth from this memory (bytes/s)
system.mem_ctrls.bw_read::switch_cpus.data    825363983                       # Total read bandwidth from this memory (bytes/s)
system.mem_ctrls.bw_read::total            1196058211                       # Total read bandwidth from this memory (bytes/s)
system.mem_ctrls.bw_inst_read::switch_cpus.inst    370694228                       # Instruction read bandwidth from this memory (bytes/s)
system.mem_ctrls.bw_inst_read::total        370694228                       # Instruction read bandwidth from this memory (bytes/s)
system.mem_ctrls.bw_write::writebacks       499214212                       # Write bandwidth from this memory (bytes/s)
system.mem_ctrls.bw_write::total            499214212                       # Write bandwidth from this memory (bytes/s)
system.mem_ctrls.bw_total::writebacks       499214212                       # Total bandwidth to/from this memory (bytes/s)
system.mem_ctrls.bw_total::switch_cpus.inst    370694228                       # Total bandwidth to/from this memory (bytes/s)
system.mem_ctrls.bw_total::switch_cpus.data    825363983                       # Total bandwidth to/from this memory (bytes/s)
system.mem_ctrls.bw_total::total           1695272423                       # Total bandwidth to/from this memory (bytes/s)
system.mem_ctrls.readReqs                       22689                       # Number of read requests accepted
system.mem_ctrls.writeReqs                       9470                       # Number of write requests accepted
system.mem_ctrls.readBursts                     22689                       # Number of DRAM read bursts, including those serviced by the write queue
system.mem_ctrls.writeBursts                     9470                       # Number of DRAM write bursts, including those merged in the write queue
system.mem_ctrls.bytesReadDRAM                1448384                       # Total number of bytes read from DRAM
system.mem_ctrls.bytesReadWrQ                    3712                       # Total number of bytes read from write queue
system.mem_ctrls.bytesWritten                  603968                       # Total number of bytes written to DRAM
system.mem_ctrls.bytesReadSys                 1452096                       # Total read bytes from the system interface side
system.mem_ctrls.bytesWrittenSys               606080                       # Total written bytes from the system interface side
system.mem_ctrls.servicedByWrQ                     58                       # Number of DRAM read bursts serviced by the write queue
system.mem_ctrls.mergedWrBursts                     2                       # Number of DRAM write bursts merged with an existing one
system.mem_ctrls.neitherReadNorWriteReqs            9                       # Number of requests that are neither read nor write
system.mem_ctrls.perBankRdBursts::0              1497                       # Per bank write bursts
system.mem_ctrls.perBankRdBursts::1              1081                       # Per bank write bursts
system.mem_ctrls.perBankRdBursts::2              1596                       # Per bank write bursts
system.mem_ctrls.perBankRdBursts::3              1451                       # Per bank write bursts
system.mem_ctrls.perBankRdBursts::4              1582                       # Per bank write bursts
system.mem_ctrls.perBankRdBursts::5              1170                       # Per bank write bursts
system.mem_ctrls.perBankRdBursts::6              1509                       # Per bank write bursts
system.mem_ctrls.perBankRdBursts::7              1144                       # Per bank write bursts
system.mem_ctrls.perBankRdBursts::8              1400                       # Per bank write bursts
system.mem_ctrls.perBankRdBursts::9              1463                       # Per bank write bursts
system.mem_ctrls.perBankRdBursts::10             1377                       # Per bank write bursts
system.mem_ctrls.perBankRdBursts::11             1679                       # Per bank write bursts
system.mem_ctrls.perBankRdBursts::12             1290                       # Per bank write bursts
system.mem_ctrls.perBankRdBursts::13             2090                       # Per bank write bursts
system.mem_ctrls.perBankRdBursts::14             1321                       # Per bank write bursts
system.mem_ctrls.perBankRdBursts::15              981                       # Per bank write bursts
system.mem_ctrls.perBankWrBursts::0               548                       # Per bank write bursts
system.mem_ctrls.perBankWrBursts::1               588                       # Per bank write bursts
system.mem_ctrls.perBankWrBursts::2               876                       # Per bank write bursts
system.mem_ctrls.perBankWrBursts::3              1022                       # Per bank write bursts
system.mem_ctrls.perBankWrBursts::4               903                       # Per bank write bursts
system.mem_ctrls.perBankWrBursts::5               640                       # Per bank write bursts
system.mem_ctrls.perBankWrBursts::6               795                       # Per bank write bursts
system.mem_ctrls.perBankWrBursts::7               424                       # Per bank write bursts
system.mem_ctrls.perBankWrBursts::8               405                       # Per bank write bursts
system.mem_ctrls.perBankWrBursts::9               687                       # Per bank write bursts
system.mem_ctrls.perBankWrBursts::10              296                       # Per bank write bursts
system.mem_ctrls.perBankWrBursts::11              419                       # Per bank write bursts
system.mem_ctrls.perBankWrBursts::12              278                       # Per bank write bursts
system.mem_ctrls.perBankWrBursts::13              520                       # Per bank write bursts
system.mem_ctrls.perBankWrBursts::14              529                       # Per bank write bursts
system.mem_ctrls.perBankWrBursts::15              507                       # Per bank write bursts
system.mem_ctrls.numRdRetry                         0                       # Number of times read queue was full causing retry
system.mem_ctrls.numWrRetry                         0                       # Number of times write queue was full causing retry
system.mem_ctrls.totGap                    1214037000                       # Total gap between requests
system.mem_ctrls.readPktSize::0                     0                       # Read request sizes (log2)
system.mem_ctrls.readPktSize::1                     0                       # Read request sizes (log2)
system.mem_ctrls.readPktSize::2                     0                       # Read request sizes (log2)
system.mem_ctrls.readPktSize::3                     0                       # Read request sizes (log2)
system.mem_ctrls.readPktSize::4                     0                       # Read request sizes (log2)
system.mem_ctrls.readPktSize::5                     0                       # Read request sizes (log2)
system.mem_ctrls.readPktSize::6                 22689                       # Read request sizes (log2)
system.mem_ctrls.writePktSize::0                    0                       # Write request sizes (log2)
system.mem_ctrls.writePktSize::1                    0                       # Write request sizes (log2)
system.mem_ctrls.writePktSize::2                    0                       # Write request sizes (log2)
system.mem_ctrls.writePktSize::3                    0                       # Write request sizes (log2)
system.mem_ctrls.writePktSize::4                    0                       # Write request sizes (log2)
system.mem_ctrls.writePktSize::5                    0                       # Write request sizes (log2)
system.mem_ctrls.writePktSize::6                 9470                       # Write request sizes (log2)
system.mem_ctrls.rdQLenPdf::0                   11543                       # What read queue length does an incoming req see
system.mem_ctrls.rdQLenPdf::1                    6224                       # What read queue length does an incoming req see
system.mem_ctrls.rdQLenPdf::2                    3197                       # What read queue length does an incoming req see
system.mem_ctrls.rdQLenPdf::3                    1621                       # What read queue length does an incoming req see
system.mem_ctrls.rdQLenPdf::4                      44                       # What read queue length does an incoming req see
system.mem_ctrls.rdQLenPdf::5                       2                       # What read queue length does an incoming req see
system.mem_ctrls.rdQLenPdf::6                       0                       # What read queue length does an incoming req see
system.mem_ctrls.rdQLenPdf::7                       0                       # What read queue length does an incoming req see
system.mem_ctrls.rdQLenPdf::8                       0                       # What read queue length does an incoming req see
system.mem_ctrls.rdQLenPdf::9                       0                       # What read queue length does an incoming req see
system.mem_ctrls.rdQLenPdf::10                      0                       # What read queue length does an incoming req see
system.mem_ctrls.rdQLenPdf::11                      0                       # What read queue length does an incoming req see
system.mem_ctrls.rdQLenPdf::12                      0                       # What read queue length does an incoming req see
system.mem_ctrls.rdQLenPdf::13                      0                       # What read queue length does an incoming req see
system.mem_ctrls.rdQLenPdf::14                      0                       # What read queue length does an incoming req see
system.mem_ctrls.rdQLenPdf::15                      0                       # What read queue length does an incoming req see
system.mem_ctrls.rdQLenPdf::16                      0                       # What read queue length does an incoming req see
system.mem_ctrls.rdQLenPdf::17                      0                       # What read queue length does an incoming req see
system.mem_ctrls.rdQLenPdf::18                      0                       # What read queue length does an incoming req see
system.mem_ctrls.rdQLenPdf::19                      0                       # What read queue length does an incoming req see
system.mem_ctrls.rdQLenPdf::20                      0                       # What read queue length does an incoming req see
system.mem_ctrls.rdQLenPdf::21                      0                       # What read queue length does an incoming req see
system.mem_ctrls.rdQLenPdf::22                      0                       # What read queue length does an incoming req see
system.mem_ctrls.rdQLenPdf::23                      0                       # What read queue length does an incoming req see
system.mem_ctrls.rdQLenPdf::24                      0                       # What read queue length does an incoming req see
system.mem_ctrls.rdQLenPdf::25                      0                       # What read queue length does an incoming req see
system.mem_ctrls.rdQLenPdf::26                      0                       # What read queue length does an incoming req see
system.mem_ctrls.rdQLenPdf::27                      0                       # What read queue length does an incoming req see
system.mem_ctrls.rdQLenPdf::28                      0                       # What read queue length does an incoming req see
system.mem_ctrls.rdQLenPdf::29                      0                       # What read queue length does an incoming req see
system.mem_ctrls.rdQLenPdf::30                      0                       # What read queue length does an incoming req see
system.mem_ctrls.rdQLenPdf::31                      0                       # What read queue length does an incoming req see
system.mem_ctrls.wrQLenPdf::0                       1                       # What write queue length does an incoming req see
system.mem_ctrls.wrQLenPdf::1                       1                       # What write queue length does an incoming req see
system.mem_ctrls.wrQLenPdf::2                       1                       # What write queue length does an incoming req see
system.mem_ctrls.wrQLenPdf::3                       1                       # What write queue length does an incoming req see
system.mem_ctrls.wrQLenPdf::4                       1                       # What write queue length does an incoming req see
system.mem_ctrls.wrQLenPdf::5                       1                       # What write queue length does an incoming req see
system.mem_ctrls.wrQLenPdf::6                       1                       # What write queue length does an incoming req see
system.mem_ctrls.wrQLenPdf::7                       1                       # What write queue length does an incoming req see
system.mem_ctrls.wrQLenPdf::8                       1                       # What write queue length does an incoming req see
system.mem_ctrls.wrQLenPdf::9                       1                       # What write queue length does an incoming req see
system.mem_ctrls.wrQLenPdf::10                      1                       # What write queue length does an incoming req see
system.mem_ctrls.wrQLenPdf::11                      1                       # What write queue length does an incoming req see
system.mem_ctrls.wrQLenPdf::12                      1                       # What write queue length does an incoming req see
system.mem_ctrls.wrQLenPdf::13                      1                       # What write queue length does an incoming req see
system.mem_ctrls.wrQLenPdf::14                      1                       # What write queue length does an incoming req see
system.mem_ctrls.wrQLenPdf::15                     44                       # What write queue length does an incoming req see
system.mem_ctrls.wrQLenPdf::16                     51                       # What write queue length does an incoming req see
system.mem_ctrls.wrQLenPdf::17                    290                       # What write queue length does an incoming req see
system.mem_ctrls.wrQLenPdf::18                    424                       # What write queue length does an incoming req see
system.mem_ctrls.wrQLenPdf::19                    532                       # What write queue length does an incoming req see
system.mem_ctrls.wrQLenPdf::20                    589                       # What write queue length does an incoming req see
system.mem_ctrls.wrQLenPdf::21                    608                       # What write queue length does an incoming req see
system.mem_ctrls.wrQLenPdf::22                    607                       # What write queue length does an incoming req see
system.mem_ctrls.wrQLenPdf::23                    606                       # What write queue length does an incoming req see
system.mem_ctrls.wrQLenPdf::24                    613                       # What write queue length does an incoming req see
system.mem_ctrls.wrQLenPdf::25                    637                       # What write queue length does an incoming req see
system.mem_ctrls.wrQLenPdf::26                    700                       # What write queue length does an incoming req see
system.mem_ctrls.wrQLenPdf::27                    630                       # What write queue length does an incoming req see
system.mem_ctrls.wrQLenPdf::28                    635                       # What write queue length does an incoming req see
system.mem_ctrls.wrQLenPdf::29                    675                       # What write queue length does an incoming req see
system.mem_ctrls.wrQLenPdf::30                    617                       # What write queue length does an incoming req see
system.mem_ctrls.wrQLenPdf::31                    603                       # What write queue length does an incoming req see
system.mem_ctrls.wrQLenPdf::32                    586                       # What write queue length does an incoming req see
system.mem_ctrls.wrQLenPdf::33                      3                       # What write queue length does an incoming req see
system.mem_ctrls.wrQLenPdf::34                      2                       # What write queue length does an incoming req see
system.mem_ctrls.wrQLenPdf::35                      1                       # What write queue length does an incoming req see
system.mem_ctrls.wrQLenPdf::36                      0                       # What write queue length does an incoming req see
system.mem_ctrls.wrQLenPdf::37                      0                       # What write queue length does an incoming req see
system.mem_ctrls.wrQLenPdf::38                      0                       # What write queue length does an incoming req see
system.mem_ctrls.wrQLenPdf::39                      0                       # What write queue length does an incoming req see
system.mem_ctrls.wrQLenPdf::40                      0                       # What write queue length does an incoming req see
system.mem_ctrls.wrQLenPdf::41                      0                       # What write queue length does an incoming req see
system.mem_ctrls.wrQLenPdf::42                      0                       # What write queue length does an incoming req see
system.mem_ctrls.wrQLenPdf::43                      0                       # What write queue length does an incoming req see
system.mem_ctrls.wrQLenPdf::44                      0                       # What write queue length does an incoming req see
system.mem_ctrls.wrQLenPdf::45                      0                       # What write queue length does an incoming req see
system.mem_ctrls.wrQLenPdf::46                      0                       # What write queue length does an incoming req see
system.mem_ctrls.wrQLenPdf::47                      0                       # What write queue length does an incoming req see
system.mem_ctrls.wrQLenPdf::48                      0                       # What write queue length does an incoming req see
system.mem_ctrls.wrQLenPdf::49                      0                       # What write queue length does an incoming req see
system.mem_ctrls.wrQLenPdf::50                      0                       # What write queue length does an incoming req see
system.mem_ctrls.wrQLenPdf::51                      0                       # What write queue length does an incoming req see
system.mem_ctrls.wrQLenPdf::52                      0                       # What write queue length does an incoming req see
system.mem_ctrls.wrQLenPdf::53                      0                       # What write queue length does an incoming req see
system.mem_ctrls.wrQLenPdf::54                      0                       # What write queue length does an incoming req see
system.mem_ctrls.wrQLenPdf::55                      0                       # What write queue length does an incoming req see
system.mem_ctrls.wrQLenPdf::56                      0                       # What write queue length does an incoming req see
system.mem_ctrls.wrQLenPdf::57                      0                       # What write queue length does an incoming req see
system.mem_ctrls.wrQLenPdf::58                      0                       # What write queue length does an incoming req see
system.mem_ctrls.wrQLenPdf::59                      0                       # What write queue length does an incoming req see
system.mem_ctrls.wrQLenPdf::60                      0                       # What write queue length does an incoming req see
system.mem_ctrls.wrQLenPdf::61                      0                       # What write queue length does an incoming req see
system.mem_ctrls.wrQLenPdf::62                      0                       # What write queue length does an incoming req see
system.mem_ctrls.wrQLenPdf::63                      0                       # What write queue length does an incoming req see
system.mem_ctrls.bytesPerActivate::samples         7950                       # Bytes accessed per row activation
system.mem_ctrls.bytesPerActivate::mean    257.787170                       # Bytes accessed per row activation
system.mem_ctrls.bytesPerActivate::gmean   149.542440                       # Bytes accessed per row activation
system.mem_ctrls.bytesPerActivate::stdev   306.982571                       # Bytes accessed per row activation
system.mem_ctrls.bytesPerActivate::0-127         3659     46.03%     46.03% # Bytes accessed per row activation
system.mem_ctrls.bytesPerActivate::128-255         1908     24.00%     70.03% # Bytes accessed per row activation
system.mem_ctrls.bytesPerActivate::256-383          695      8.74%     78.77% # Bytes accessed per row activation
system.mem_ctrls.bytesPerActivate::384-511          338      4.25%     83.02% # Bytes accessed per row activation
system.mem_ctrls.bytesPerActivate::512-639          197      2.48%     85.50% # Bytes accessed per row activation
system.mem_ctrls.bytesPerActivate::640-767          151      1.90%     87.40% # Bytes accessed per row activation
system.mem_ctrls.bytesPerActivate::768-895          121      1.52%     88.92% # Bytes accessed per row activation
system.mem_ctrls.bytesPerActivate::896-1023          112      1.41%     90.33% # Bytes accessed per row activation
system.mem_ctrls.bytesPerActivate::1024-1151          769      9.67%    100.00% # Bytes accessed per row activation
system.mem_ctrls.bytesPerActivate::total         7950                       # Bytes accessed per row activation
system.mem_ctrls.rdPerTurnAround::samples          583                       # Reads before turning the bus around for writes
system.mem_ctrls.rdPerTurnAround::mean      38.775300                       # Reads before turning the bus around for writes
system.mem_ctrls.rdPerTurnAround::gmean     31.857250                       # Reads before turning the bus around for writes
system.mem_ctrls.rdPerTurnAround::stdev     27.492816                       # Reads before turning the bus around for writes
system.mem_ctrls.rdPerTurnAround::0-7               1      0.17%      0.17% # Reads before turning the bus around for writes
system.mem_ctrls.rdPerTurnAround::8-15             39      6.69%      6.86% # Reads before turning the bus around for writes
system.mem_ctrls.rdPerTurnAround::16-23           177     30.36%     37.22% # Reads before turning the bus around for writes
system.mem_ctrls.rdPerTurnAround::24-31            73     12.52%     49.74% # Reads before turning the bus around for writes
system.mem_ctrls.rdPerTurnAround::32-39            73     12.52%     62.26% # Reads before turning the bus around for writes
system.mem_ctrls.rdPerTurnAround::40-47            63     10.81%     73.07% # Reads before turning the bus around for writes
system.mem_ctrls.rdPerTurnAround::48-55            45      7.72%     80.79% # Reads before turning the bus around for writes
system.mem_ctrls.rdPerTurnAround::56-63            26      4.46%     85.25% # Reads before turning the bus around for writes
system.mem_ctrls.rdPerTurnAround::64-71            22      3.77%     89.02% # Reads before turning the bus around for writes
system.mem_ctrls.rdPerTurnAround::72-79            17      2.92%     91.94% # Reads before turning the bus around for writes
system.mem_ctrls.rdPerTurnAround::80-87            15      2.57%     94.51% # Reads before turning the bus around for writes
system.mem_ctrls.rdPerTurnAround::88-95             9      1.54%     96.05% # Reads before turning the bus around for writes
system.mem_ctrls.rdPerTurnAround::96-103            4      0.69%     96.74% # Reads before turning the bus around for writes
system.mem_ctrls.rdPerTurnAround::104-111            6      1.03%     97.77% # Reads before turning the bus around for writes
system.mem_ctrls.rdPerTurnAround::112-119            4      0.69%     98.46% # Reads before turning the bus around for writes
system.mem_ctrls.rdPerTurnAround::120-127            3      0.51%     98.97% # Reads before turning the bus around for writes
system.mem_ctrls.rdPerTurnAround::128-135            1      0.17%     99.14% # Reads before turning the bus around for writes
system.mem_ctrls.rdPerTurnAround::144-151            1      0.17%     99.31% # Reads before turning the bus around for writes
system.mem_ctrls.rdPerTurnAround::160-167            1      0.17%     99.49% # Reads before turning the bus around for writes
system.mem_ctrls.rdPerTurnAround::184-191            1      0.17%     99.66% # Reads before turning the bus around for writes
system.mem_ctrls.rdPerTurnAround::208-215            1      0.17%     99.83% # Reads before turning the bus around for writes
system.mem_ctrls.rdPerTurnAround::224-231            1      0.17%    100.00% # Reads before turning the bus around for writes
system.mem_ctrls.rdPerTurnAround::total           583                       # Reads before turning the bus around for writes
system.mem_ctrls.wrPerTurnAround::samples          583                       # Writes before turning the bus around for reads
system.mem_ctrls.wrPerTurnAround::mean      16.186964                       # Writes before turning the bus around for reads
system.mem_ctrls.wrPerTurnAround::gmean     16.176169                       # Writes before turning the bus around for reads
system.mem_ctrls.wrPerTurnAround::stdev      0.615690                       # Writes before turning the bus around for reads
system.mem_ctrls.wrPerTurnAround::16              529     90.74%     90.74% # Writes before turning the bus around for reads
system.mem_ctrls.wrPerTurnAround::17                8      1.37%     92.11% # Writes before turning the bus around for reads
system.mem_ctrls.wrPerTurnAround::18               39      6.69%     98.80% # Writes before turning the bus around for reads
system.mem_ctrls.wrPerTurnAround::19                5      0.86%     99.66% # Writes before turning the bus around for reads
system.mem_ctrls.wrPerTurnAround::20                2      0.34%    100.00% # Writes before turning the bus around for reads
system.mem_ctrls.wrPerTurnAround::total           583                       # Writes before turning the bus around for reads
system.mem_ctrls.totQLat                    407672250                       # Total ticks spent queuing
system.mem_ctrls.totMemAccLat               832003500                       # Total ticks spent from burst creation until serviced by the DRAM
system.mem_ctrls.totBusLat                  113155000                       # Total ticks spent in databus transfers
system.mem_ctrls.avgQLat                     18013.89                       # Average queueing delay per DRAM burst
system.mem_ctrls.avgBusLat                    5000.00                       # Average bus latency per DRAM burst
system.mem_ctrls.avgMemAccLat                36763.89                       # Average memory access latency per DRAM burst
system.mem_ctrls.avgRdBW                      1193.00                       # Average DRAM read bandwidth in MiByte/s
system.mem_ctrls.avgWrBW                       497.47                       # Average achieved write bandwidth in MiByte/s
system.mem_ctrls.avgRdBWSys                   1196.06                       # Average system read bandwidth in MiByte/s
system.mem_ctrls.avgWrBWSys                    499.21                       # Average system write bandwidth in MiByte/s
system.mem_ctrls.peakBW                      12800.00                       # Theoretical peak bandwidth in MiByte/s
system.mem_ctrls.busUtil                        13.21                       # Data bus utilization in percentage
system.mem_ctrls.busUtilRead                     9.32                       # Data bus utilization in percentage for reads
system.mem_ctrls.busUtilWrite                    3.89                       # Data bus utilization in percentage for writes
system.mem_ctrls.avgRdQLen                       1.78                       # Average read queue length when enqueuing
system.mem_ctrls.avgWrQLen                      25.67                       # Average write queue length when enqueuing
system.mem_ctrls.readRowHits                    17101                       # Number of row buffer hits during reads
system.mem_ctrls.writeRowHits                    7001                       # Number of row buffer hits during writes
system.mem_ctrls.readRowHitRate                 75.56                       # Row buffer hit rate for reads
system.mem_ctrls.writeRowHitRate                73.94                       # Row buffer hit rate for writes
system.mem_ctrls.avgGap                      37751.08                       # Average gap between requests
system.mem_ctrls.pageHitRate                    75.09                       # Row buffer hit rate, read and write combined
system.mem_ctrls_0.actEnergy                 29695680                       # Energy for activate commands per rank (pJ)
system.mem_ctrls_0.preEnergy                 16203000                       # Energy for precharge commands per rank (pJ)
system.mem_ctrls_0.readEnergy                85620600                       # Energy for read commands per rank (pJ)
system.mem_ctrls_0.writeEnergy               37344240                       # Energy for write commands per rank (pJ)
system.mem_ctrls_0.refreshEnergy             78826800                       # Energy for refresh commands per rank (pJ)
system.mem_ctrls_0.actBackEnergy            800082495                       # Energy for active background per rank (pJ)
system.mem_ctrls_0.preBackEnergy             22450500                       # Energy for precharge background per rank (pJ)
system.mem_ctrls_0.totalEnergy             1070223315                       # Total energy per rank (pJ)
system.mem_ctrls_0.averagePower            886.585888                       # Core power per rank (mW)
system.mem_ctrls_0.memoryStateTime::IDLE     32656000                       # Time in different power states
system.mem_ctrls_0.memoryStateTime::REF      40300000                       # Time in different power states
system.mem_ctrls_0.memoryStateTime::PRE_PDN            0                       # Time in different power states
system.mem_ctrls_0.memoryStateTime::ACT    1134349000                       # Time in different power states
system.mem_ctrls_0.memoryStateTime::ACT_PDN            0                       # Time in different power states
system.mem_ctrls_1.actEnergy                 30043440                       # Energy for activate commands per rank (pJ)
system.mem_ctrls_1.preEnergy                 16392750                       # Energy for precharge commands per rank (pJ)
system.mem_ctrls_1.readEnergy                90058800                       # Energy for read commands per rank (pJ)
system.mem_ctrls_1.writeEnergy               23496480                       # Energy for write commands per rank (pJ)
system.mem_ctrls_1.refreshEnergy             78826800                       # Energy for refresh commands per rank (pJ)
system.mem_ctrls_1.actBackEnergy            805840920                       # Energy for active background per rank (pJ)
system.mem_ctrls_1.preBackEnergy             17399250                       # Energy for precharge background per rank (pJ)
system.mem_ctrls_1.totalEnergy             1062058440                       # Total energy per rank (pJ)
system.mem_ctrls_1.averagePower            879.822007                       # Core power per rank (mW)
system.mem_ctrls_1.memoryStateTime::IDLE     24177000                       # Time in different power states
system.mem_ctrls_1.memoryStateTime::REF      40300000                       # Time in different power states
system.mem_ctrls_1.memoryStateTime::PRE_PDN            0                       # Time in different power states
system.mem_ctrls_1.memoryStateTime::ACT    1142665500                       # Time in different power states
system.mem_ctrls_1.memoryStateTime::ACT_PDN            0                       # Time in different power states
system.cpu_voltage_domain.voltage                   1                       # Voltage in Volts
system.cpu_clk_domain.clock                       500                       # Clock period in ticks
system.cpu.dtb.fetch_hits                           0                       # ITB hits
system.cpu.dtb.fetch_misses                         0                       # ITB misses
system.cpu.dtb.fetch_acv                            0                       # ITB acv
system.cpu.dtb.fetch_accesses                       0                       # ITB accesses
system.cpu.dtb.read_hits                            0                       # DTB read hits
system.cpu.dtb.read_misses                          0                       # DTB read misses
system.cpu.dtb.read_acv                             0                       # DTB read access violations
system.cpu.dtb.read_accesses                        0                       # DTB read accesses
system.cpu.dtb.write_hits                           0                       # DTB write hits
system.cpu.dtb.write_misses                         0                       # DTB write misses
system.cpu.dtb.write_acv                            0                       # DTB write access violations
system.cpu.dtb.write_accesses                       0                       # DTB write accesses
system.cpu.dtb.data_hits                            0                       # DTB hits
system.cpu.dtb.data_misses                          0                       # DTB misses
system.cpu.dtb.data_acv                             0                       # DTB access violations
system.cpu.dtb.data_accesses                        0                       # DTB accesses
system.cpu.itb.fetch_hits                           0                       # ITB hits
system.cpu.itb.fetch_misses                         0                       # ITB misses
system.cpu.itb.fetch_acv                            0                       # ITB acv
system.cpu.itb.fetch_accesses                       0                       # ITB accesses
system.cpu.itb.read_hits                            0                       # DTB read hits
system.cpu.itb.read_misses                          0                       # DTB read misses
system.cpu.itb.read_acv                             0                       # DTB read access violations
system.cpu.itb.read_accesses                        0                       # DTB read accesses
system.cpu.itb.write_hits                           0                       # DTB write hits
system.cpu.itb.write_misses                         0                       # DTB write misses
system.cpu.itb.write_acv                            0                       # DTB write access violations
system.cpu.itb.write_accesses                       0                       # DTB write accesses
system.cpu.itb.data_hits                            0                       # DTB hits
system.cpu.itb.data_misses                          0                       # DTB misses
system.cpu.itb.data_acv                             0                       # DTB access violations
system.cpu.itb.data_accesses                        0                       # DTB accesses
system.cpu.numCycles                                0                       # number of cpu cycles simulated
system.cpu.numWorkItemsStarted                      0                       # number of work items this cpu started
system.cpu.numWorkItemsCompleted                    0                       # number of work items this cpu completed
system.cpu.committedInsts                           0                       # Number of instructions committed
system.cpu.committedOps                             0                       # Number of ops (including micro ops) committed
system.cpu.num_int_alu_accesses                     0                       # Number of integer alu accesses
system.cpu.num_fp_alu_accesses                      0                       # Number of float alu accesses
system.cpu.num_func_calls                           0                       # number of times a function call or return occured
system.cpu.num_conditional_control_insts            0                       # number of instructions that are conditional controls
system.cpu.num_int_insts                            0                       # number of integer instructions
system.cpu.num_fp_insts                             0                       # number of float instructions
system.cpu.num_int_register_reads                   0                       # number of times the integer registers were read
system.cpu.num_int_register_writes                  0                       # number of times the integer registers were written
system.cpu.num_fp_register_reads                    0                       # number of times the floating registers were read
system.cpu.num_fp_register_writes                   0                       # number of times the floating registers were written
system.cpu.num_mem_refs                             0                       # number of memory refs
system.cpu.num_load_insts                           0                       # Number of load instructions
system.cpu.num_store_insts                          0                       # Number of store instructions
system.cpu.num_idle_cycles                          0                       # Number of idle cycles
system.cpu.num_busy_cycles                          0                       # Number of busy cycles
system.cpu.not_idle_fraction                        1                       # Percentage of non-idle cycles
system.cpu.idle_fraction                            0                       # Percentage of idle cycles
system.cpu.op_class::No_OpClass                     0                       # Class of executed instruction
system.cpu.op_class::IntAlu                         0                       # Class of executed instruction
system.cpu.op_class::IntMult                        0                       # Class of executed instruction
system.cpu.op_class::IntDiv                         0                       # Class of executed instruction
system.cpu.op_class::FloatAdd                       0                       # Class of executed instruction
system.cpu.op_class::FloatCmp                       0                       # Class of executed instruction
system.cpu.op_class::FloatCvt                       0                       # Class of executed instruction
system.cpu.op_class::FloatMult                      0                       # Class of executed instruction
system.cpu.op_class::FloatDiv                       0                       # Class of executed instruction
system.cpu.op_class::FloatSqrt                      0                       # Class of executed instruction
system.cpu.op_class::SimdAdd                        0                       # Class of executed instruction
system.cpu.op_class::SimdAddAcc                     0                       # Class of executed instruction
system.cpu.op_class::SimdAlu                        0                       # Class of executed instruction
system.cpu.op_class::SimdCmp                        0                       # Class of executed instruction
system.cpu.op_class::SimdCvt                        0                       # Class of executed instruction
system.cpu.op_class::SimdMisc                       0                       # Class of executed instruction
system.cpu.op_class::SimdMult                       0                       # Class of executed instruction
system.cpu.op_class::SimdMultAcc                    0                       # Class of executed instruction
system.cpu.op_class::SimdShift                      0                       # Class of executed instruction
system.cpu.op_class::SimdShiftAcc                   0                       # Class of executed instruction
system.cpu.op_class::SimdSqrt                       0                       # Class of executed instruction
system.cpu.op_class::SimdFloatAdd                   0                       # Class of executed instruction
system.cpu.op_class::SimdFloatAlu                   0                       # Class of executed instruction
system.cpu.op_class::SimdFloatCmp                   0                       # Class of executed instruction
system.cpu.op_class::SimdFloatCvt                   0                       # Class of executed instruction
system.cpu.op_class::SimdFloatDiv                   0                       # Class of executed instruction
system.cpu.op_class::SimdFloatMisc                  0                       # Class of executed instruction
system.cpu.op_class::SimdFloatMult                  0                       # Class of executed instruction
system.cpu.op_class::SimdFloatMultAcc               0                       # Class of executed instruction
system.cpu.op_class::SimdFloatSqrt                  0                       # Class of executed instruction
system.cpu.op_class::MemRead                        0                       # Class of executed instruction
system.cpu.op_class::MemWrite                       0                       # Class of executed instruction
system.cpu.op_class::IprAccess                      0                       # Class of executed instruction
system.cpu.op_class::InstPrefetch                   0                       # Class of executed instruction
system.cpu.op_class::total                          0                       # Class of executed instruction
system.cpu.kern.inst.arm                            0                       # number of arm instructions executed
system.cpu.kern.inst.quiesce                        0                       # number of quiesce instructions executed
system.cpu.kern.inst.hwrei                       2781                       # number of hwrei instructions executed
system.cpu.kern.ipl_count::0                      635     49.15%     49.15% # number of times we switched to this ipl
system.cpu.kern.ipl_count::22                       1      0.08%     49.23% # number of times we switched to this ipl
system.cpu.kern.ipl_count::31                     656     50.77%    100.00% # number of times we switched to this ipl
system.cpu.kern.ipl_count::total                 1292                       # number of times we switched to this ipl
system.cpu.kern.ipl_good::0                       633     49.96%     49.96% # number of times we switched to this ipl from a different ipl
system.cpu.kern.ipl_good::22                        1      0.08%     50.04% # number of times we switched to this ipl from a different ipl
system.cpu.kern.ipl_good::31                      633     49.96%    100.00% # number of times we switched to this ipl from a different ipl
system.cpu.kern.ipl_good::total                  1267                       # number of times we switched to this ipl from a different ipl
system.cpu.kern.ipl_ticks::0               1101591500     90.88%     90.88% # number of cycles we spent at this ipl
system.cpu.kern.ipl_ticks::22                 1291000      0.11%     90.98% # number of cycles we spent at this ipl
system.cpu.kern.ipl_ticks::31               109280500      9.02%    100.00% # number of cycles we spent at this ipl
system.cpu.kern.ipl_ticks::total           1212163000                       # number of cycles we spent at this ipl
system.cpu.kern.ipl_used::0                  0.996850                       # fraction of swpipl calls that actually changed the ipl
system.cpu.kern.ipl_used::22                        1                       # fraction of swpipl calls that actually changed the ipl
system.cpu.kern.ipl_used::31                 0.964939                       # fraction of swpipl calls that actually changed the ipl
system.cpu.kern.ipl_used::total              0.980650                       # fraction of swpipl calls that actually changed the ipl
system.cpu.kern.syscall::2                          1      5.56%      5.56% # number of syscalls executed
system.cpu.kern.syscall::3                          2     11.11%     16.67% # number of syscalls executed
system.cpu.kern.syscall::6                          2     11.11%     27.78% # number of syscalls executed
system.cpu.kern.syscall::17                         1      5.56%     33.33% # number of syscalls executed
system.cpu.kern.syscall::19                         1      5.56%     38.89% # number of syscalls executed
system.cpu.kern.syscall::33                         1      5.56%     44.44% # number of syscalls executed
system.cpu.kern.syscall::45                         3     16.67%     61.11% # number of syscalls executed
system.cpu.kern.syscall::48                         1      5.56%     66.67% # number of syscalls executed
system.cpu.kern.syscall::59                         1      5.56%     72.22% # number of syscalls executed
system.cpu.kern.syscall::71                         4     22.22%     94.44% # number of syscalls executed
system.cpu.kern.syscall::74                         1      5.56%    100.00% # number of syscalls executed
system.cpu.kern.syscall::total                     18                       # number of syscalls executed
system.cpu.kern.callpal::swpctx                   118      8.10%      8.10% # number of callpals executed
system.cpu.kern.callpal::tbi                        6      0.41%      8.51% # number of callpals executed
system.cpu.kern.callpal::swpipl                  1107     75.98%     84.49% # number of callpals executed
system.cpu.kern.callpal::rdps                       3      0.21%     84.69% # number of callpals executed
system.cpu.kern.callpal::wrusp                      1      0.07%     84.76% # number of callpals executed
system.cpu.kern.callpal::rdusp                      1      0.07%     84.83% # number of callpals executed
system.cpu.kern.callpal::rti                      184     12.63%     97.46% # number of callpals executed
system.cpu.kern.callpal::callsys                   33      2.26%     99.73% # number of callpals executed
system.cpu.kern.callpal::imb                        4      0.27%    100.00% # number of callpals executed
system.cpu.kern.callpal::total                   1457                       # number of callpals executed
system.cpu.kern.mode_switch::kernel               302                       # number of protection mode switches
system.cpu.kern.mode_switch::user                 181                       # number of protection mode switches
system.cpu.kern.mode_switch::idle                   0                       # number of protection mode switches
system.cpu.kern.mode_good::kernel                 181                      
system.cpu.kern.mode_good::user                   181                      
system.cpu.kern.mode_good::idle                     0                      
system.cpu.kern.mode_switch_good::kernel     0.599338                       # fraction of useful protection mode switches
system.cpu.kern.mode_switch_good::user              1                       # fraction of useful protection mode switches
system.cpu.kern.mode_switch_good::idle            nan                       # fraction of useful protection mode switches
system.cpu.kern.mode_switch_good::total      0.749482                       # fraction of useful protection mode switches
system.cpu.kern.mode_ticks::kernel          877548000     72.40%     72.40% # number of ticks spent at the given mode
system.cpu.kern.mode_ticks::user            334608000     27.60%    100.00% # number of ticks spent at the given mode
system.cpu.kern.mode_ticks::idle                    0      0.00%    100.00% # number of ticks spent at the given mode
system.cpu.kern.swap_context                      118                       # number of times the context was actually changed
system.cpu.dcache.tags.replacements             18280                       # number of replacements
system.cpu.dcache.tags.tagsinuse                  512                       # Cycle average of tags in use
system.cpu.dcache.tags.total_refs              199282                       # Total number of references to valid blocks.
system.cpu.dcache.tags.sampled_refs             18280                       # Sample count of references to valid blocks.
system.cpu.dcache.tags.avg_refs             10.901641                       # Average number of references to valid blocks.
system.cpu.dcache.tags.warmup_cycle                 0                       # Cycle when the warmup percentage was hit.
system.cpu.dcache.tags.occ_blocks::cpu.data    24.618232                       # Average occupied blocks per requestor
system.cpu.dcache.tags.occ_blocks::switch_cpus.data   487.381768                       # Average occupied blocks per requestor
system.cpu.dcache.tags.occ_percent::cpu.data     0.048082                       # Average percentage of cache occupancy
system.cpu.dcache.tags.occ_percent::switch_cpus.data     0.951918                       # Average percentage of cache occupancy
system.cpu.dcache.tags.occ_percent::total            1                       # Average percentage of cache occupancy
system.cpu.dcache.tags.occ_task_id_blocks::1024          512                       # Occupied blocks per task id
system.cpu.dcache.tags.age_task_id_blocks_1024::0           90                       # Occupied blocks per task id
system.cpu.dcache.tags.age_task_id_blocks_1024::1          365                       # Occupied blocks per task id
system.cpu.dcache.tags.age_task_id_blocks_1024::2           57                       # Occupied blocks per task id
system.cpu.dcache.tags.occ_task_id_percent::1024            1                       # Percentage of cache occupancy per task id
system.cpu.dcache.tags.tag_accesses           1187044                       # Number of tag accesses
system.cpu.dcache.tags.data_accesses          1187044                       # Number of data accesses
system.cpu.dcache.ReadReq_hits::switch_cpus.data       133150                       # number of ReadReq hits
system.cpu.dcache.ReadReq_hits::total          133150                       # number of ReadReq hits
system.cpu.dcache.WriteReq_hits::switch_cpus.data        58625                       # number of WriteReq hits
system.cpu.dcache.WriteReq_hits::total          58625                       # number of WriteReq hits
system.cpu.dcache.LoadLockedReq_hits::switch_cpus.data         2223                       # number of LoadLockedReq hits
system.cpu.dcache.LoadLockedReq_hits::total         2223                       # number of LoadLockedReq hits
system.cpu.dcache.StoreCondReq_hits::switch_cpus.data         2376                       # number of StoreCondReq hits
system.cpu.dcache.StoreCondReq_hits::total         2376                       # number of StoreCondReq hits
system.cpu.dcache.demand_hits::switch_cpus.data       191775                       # number of demand (read+write) hits
system.cpu.dcache.demand_hits::total           191775                       # number of demand (read+write) hits
system.cpu.dcache.overall_hits::switch_cpus.data       191775                       # number of overall hits
system.cpu.dcache.overall_hits::total          191775                       # number of overall hits
system.cpu.dcache.ReadReq_misses::switch_cpus.data        27794                       # number of ReadReq misses
system.cpu.dcache.ReadReq_misses::total         27794                       # number of ReadReq misses
system.cpu.dcache.WriteReq_misses::switch_cpus.data        67615                       # number of WriteReq misses
system.cpu.dcache.WriteReq_misses::total        67615                       # number of WriteReq misses
system.cpu.dcache.LoadLockedReq_misses::switch_cpus.data          406                       # number of LoadLockedReq misses
system.cpu.dcache.LoadLockedReq_misses::total          406                       # number of LoadLockedReq misses
system.cpu.dcache.StoreCondReq_misses::switch_cpus.data            2                       # number of StoreCondReq misses
system.cpu.dcache.StoreCondReq_misses::total            2                       # number of StoreCondReq misses
system.cpu.dcache.demand_misses::switch_cpus.data        95409                       # number of demand (read+write) misses
system.cpu.dcache.demand_misses::total          95409                       # number of demand (read+write) misses
system.cpu.dcache.overall_misses::switch_cpus.data        95409                       # number of overall misses
system.cpu.dcache.overall_misses::total         95409                       # number of overall misses
system.cpu.dcache.ReadReq_miss_latency::switch_cpus.data   1714257252                       # number of ReadReq miss cycles
system.cpu.dcache.ReadReq_miss_latency::total   1714257252                       # number of ReadReq miss cycles
system.cpu.dcache.WriteReq_miss_latency::switch_cpus.data   5001551870                       # number of WriteReq miss cycles
system.cpu.dcache.WriteReq_miss_latency::total   5001551870                       # number of WriteReq miss cycles
system.cpu.dcache.LoadLockedReq_miss_latency::switch_cpus.data     28903000                       # number of LoadLockedReq miss cycles
system.cpu.dcache.LoadLockedReq_miss_latency::total     28903000                       # number of LoadLockedReq miss cycles
system.cpu.dcache.StoreCondReq_miss_latency::switch_cpus.data        47001                       # number of StoreCondReq miss cycles
system.cpu.dcache.StoreCondReq_miss_latency::total        47001                       # number of StoreCondReq miss cycles
system.cpu.dcache.demand_miss_latency::switch_cpus.data   6715809122                       # number of demand (read+write) miss cycles
system.cpu.dcache.demand_miss_latency::total   6715809122                       # number of demand (read+write) miss cycles
system.cpu.dcache.overall_miss_latency::switch_cpus.data   6715809122                       # number of overall miss cycles
system.cpu.dcache.overall_miss_latency::total   6715809122                       # number of overall miss cycles
system.cpu.dcache.ReadReq_accesses::switch_cpus.data       160944                       # number of ReadReq accesses(hits+misses)
system.cpu.dcache.ReadReq_accesses::total       160944                       # number of ReadReq accesses(hits+misses)
system.cpu.dcache.WriteReq_accesses::switch_cpus.data       126240                       # number of WriteReq accesses(hits+misses)
system.cpu.dcache.WriteReq_accesses::total       126240                       # number of WriteReq accesses(hits+misses)
system.cpu.dcache.LoadLockedReq_accesses::switch_cpus.data         2629                       # number of LoadLockedReq accesses(hits+misses)
system.cpu.dcache.LoadLockedReq_accesses::total         2629                       # number of LoadLockedReq accesses(hits+misses)
system.cpu.dcache.StoreCondReq_accesses::switch_cpus.data         2378                       # number of StoreCondReq accesses(hits+misses)
system.cpu.dcache.StoreCondReq_accesses::total         2378                       # number of StoreCondReq accesses(hits+misses)
system.cpu.dcache.demand_accesses::switch_cpus.data       287184                       # number of demand (read+write) accesses
system.cpu.dcache.demand_accesses::total       287184                       # number of demand (read+write) accesses
system.cpu.dcache.overall_accesses::switch_cpus.data       287184                       # number of overall (read+write) accesses
system.cpu.dcache.overall_accesses::total       287184                       # number of overall (read+write) accesses
system.cpu.dcache.ReadReq_miss_rate::switch_cpus.data     0.172694                       # miss rate for ReadReq accesses
system.cpu.dcache.ReadReq_miss_rate::total     0.172694                       # miss rate for ReadReq accesses
system.cpu.dcache.WriteReq_miss_rate::switch_cpus.data     0.535607                       # miss rate for WriteReq accesses
system.cpu.dcache.WriteReq_miss_rate::total     0.535607                       # miss rate for WriteReq accesses
system.cpu.dcache.LoadLockedReq_miss_rate::switch_cpus.data     0.154431                       # miss rate for LoadLockedReq accesses
system.cpu.dcache.LoadLockedReq_miss_rate::total     0.154431                       # miss rate for LoadLockedReq accesses
system.cpu.dcache.StoreCondReq_miss_rate::switch_cpus.data     0.000841                       # miss rate for StoreCondReq accesses
system.cpu.dcache.StoreCondReq_miss_rate::total     0.000841                       # miss rate for StoreCondReq accesses
system.cpu.dcache.demand_miss_rate::switch_cpus.data     0.332223                       # miss rate for demand accesses
system.cpu.dcache.demand_miss_rate::total     0.332223                       # miss rate for demand accesses
system.cpu.dcache.overall_miss_rate::switch_cpus.data     0.332223                       # miss rate for overall accesses
system.cpu.dcache.overall_miss_rate::total     0.332223                       # miss rate for overall accesses
system.cpu.dcache.ReadReq_avg_miss_latency::switch_cpus.data 61677.241563                       # average ReadReq miss latency
system.cpu.dcache.ReadReq_avg_miss_latency::total 61677.241563                       # average ReadReq miss latency
system.cpu.dcache.WriteReq_avg_miss_latency::switch_cpus.data 73971.040006                       # average WriteReq miss latency
system.cpu.dcache.WriteReq_avg_miss_latency::total 73971.040006                       # average WriteReq miss latency
system.cpu.dcache.LoadLockedReq_avg_miss_latency::switch_cpus.data 71189.655172                       # average LoadLockedReq miss latency
system.cpu.dcache.LoadLockedReq_avg_miss_latency::total 71189.655172                       # average LoadLockedReq miss latency
system.cpu.dcache.StoreCondReq_avg_miss_latency::switch_cpus.data 23500.500000                       # average StoreCondReq miss latency
system.cpu.dcache.StoreCondReq_avg_miss_latency::total 23500.500000                       # average StoreCondReq miss latency
system.cpu.dcache.demand_avg_miss_latency::switch_cpus.data 70389.681498                       # average overall miss latency
system.cpu.dcache.demand_avg_miss_latency::total 70389.681498                       # average overall miss latency
system.cpu.dcache.overall_avg_miss_latency::switch_cpus.data 70389.681498                       # average overall miss latency
system.cpu.dcache.overall_avg_miss_latency::total 70389.681498                       # average overall miss latency
system.cpu.dcache.blocked_cycles::no_mshrs       389118                       # number of cycles access was blocked
system.cpu.dcache.blocked_cycles::no_targets            0                       # number of cycles access was blocked
system.cpu.dcache.blocked::no_mshrs              7642                       # number of cycles access was blocked
system.cpu.dcache.blocked::no_targets               0                       # number of cycles access was blocked
system.cpu.dcache.avg_blocked_cycles::no_mshrs    50.918346                       # average number of cycles each access was blocked
system.cpu.dcache.avg_blocked_cycles::no_targets          nan                       # average number of cycles each access was blocked
system.cpu.dcache.fast_writes                       0                       # number of fast writes performed
system.cpu.dcache.cache_copies                      0                       # number of cache copies performed
system.cpu.dcache.writebacks::writebacks        11008                       # number of writebacks
system.cpu.dcache.writebacks::total             11008                       # number of writebacks
system.cpu.dcache.ReadReq_mshr_hits::switch_cpus.data        18827                       # number of ReadReq MSHR hits
system.cpu.dcache.ReadReq_mshr_hits::total        18827                       # number of ReadReq MSHR hits
system.cpu.dcache.WriteReq_mshr_hits::switch_cpus.data        58513                       # number of WriteReq MSHR hits
system.cpu.dcache.WriteReq_mshr_hits::total        58513                       # number of WriteReq MSHR hits
system.cpu.dcache.LoadLockedReq_mshr_hits::switch_cpus.data          184                       # number of LoadLockedReq MSHR hits
system.cpu.dcache.LoadLockedReq_mshr_hits::total          184                       # number of LoadLockedReq MSHR hits
system.cpu.dcache.demand_mshr_hits::switch_cpus.data        77340                       # number of demand (read+write) MSHR hits
system.cpu.dcache.demand_mshr_hits::total        77340                       # number of demand (read+write) MSHR hits
system.cpu.dcache.overall_mshr_hits::switch_cpus.data        77340                       # number of overall MSHR hits
system.cpu.dcache.overall_mshr_hits::total        77340                       # number of overall MSHR hits
system.cpu.dcache.ReadReq_mshr_misses::switch_cpus.data         8967                       # number of ReadReq MSHR misses
system.cpu.dcache.ReadReq_mshr_misses::total         8967                       # number of ReadReq MSHR misses
system.cpu.dcache.WriteReq_mshr_misses::switch_cpus.data         9102                       # number of WriteReq MSHR misses
system.cpu.dcache.WriteReq_mshr_misses::total         9102                       # number of WriteReq MSHR misses
system.cpu.dcache.LoadLockedReq_mshr_misses::switch_cpus.data          222                       # number of LoadLockedReq MSHR misses
system.cpu.dcache.LoadLockedReq_mshr_misses::total          222                       # number of LoadLockedReq MSHR misses
system.cpu.dcache.StoreCondReq_mshr_misses::switch_cpus.data            2                       # number of StoreCondReq MSHR misses
system.cpu.dcache.StoreCondReq_mshr_misses::total            2                       # number of StoreCondReq MSHR misses
system.cpu.dcache.demand_mshr_misses::switch_cpus.data        18069                       # number of demand (read+write) MSHR misses
system.cpu.dcache.demand_mshr_misses::total        18069                       # number of demand (read+write) MSHR misses
system.cpu.dcache.overall_mshr_misses::switch_cpus.data        18069                       # number of overall MSHR misses
system.cpu.dcache.overall_mshr_misses::total        18069                       # number of overall MSHR misses
system.cpu.dcache.WriteReq_mshr_uncacheable::switch_cpus.data            1                       # number of WriteReq MSHR uncacheable
system.cpu.dcache.WriteReq_mshr_uncacheable::total            1                       # number of WriteReq MSHR uncacheable
system.cpu.dcache.overall_mshr_uncacheable_misses::switch_cpus.data            1                       # number of overall MSHR uncacheable misses
system.cpu.dcache.overall_mshr_uncacheable_misses::total            1                       # number of overall MSHR uncacheable misses
system.cpu.dcache.ReadReq_mshr_miss_latency::switch_cpus.data    648691750                       # number of ReadReq MSHR miss cycles
system.cpu.dcache.ReadReq_mshr_miss_latency::total    648691750                       # number of ReadReq MSHR miss cycles
system.cpu.dcache.WriteReq_mshr_miss_latency::switch_cpus.data    773945561                       # number of WriteReq MSHR miss cycles
system.cpu.dcache.WriteReq_mshr_miss_latency::total    773945561                       # number of WriteReq MSHR miss cycles
system.cpu.dcache.LoadLockedReq_mshr_miss_latency::switch_cpus.data     15412250                       # number of LoadLockedReq MSHR miss cycles
system.cpu.dcache.LoadLockedReq_mshr_miss_latency::total     15412250                       # number of LoadLockedReq MSHR miss cycles
system.cpu.dcache.StoreCondReq_mshr_miss_latency::switch_cpus.data        43999                       # number of StoreCondReq MSHR miss cycles
system.cpu.dcache.StoreCondReq_mshr_miss_latency::total        43999                       # number of StoreCondReq MSHR miss cycles
system.cpu.dcache.demand_mshr_miss_latency::switch_cpus.data   1422637311                       # number of demand (read+write) MSHR miss cycles
system.cpu.dcache.demand_mshr_miss_latency::total   1422637311                       # number of demand (read+write) MSHR miss cycles
system.cpu.dcache.overall_mshr_miss_latency::switch_cpus.data   1422637311                       # number of overall MSHR miss cycles
system.cpu.dcache.overall_mshr_miss_latency::total   1422637311                       # number of overall MSHR miss cycles
system.cpu.dcache.WriteReq_mshr_uncacheable_latency::switch_cpus.data       223500                       # number of WriteReq MSHR uncacheable cycles
system.cpu.dcache.WriteReq_mshr_uncacheable_latency::total       223500                       # number of WriteReq MSHR uncacheable cycles
system.cpu.dcache.overall_mshr_uncacheable_latency::switch_cpus.data       223500                       # number of overall MSHR uncacheable cycles
system.cpu.dcache.overall_mshr_uncacheable_latency::total       223500                       # number of overall MSHR uncacheable cycles
system.cpu.dcache.ReadReq_mshr_miss_rate::switch_cpus.data     0.055715                       # mshr miss rate for ReadReq accesses
system.cpu.dcache.ReadReq_mshr_miss_rate::total     0.055715                       # mshr miss rate for ReadReq accesses
system.cpu.dcache.WriteReq_mshr_miss_rate::switch_cpus.data     0.072101                       # mshr miss rate for WriteReq accesses
system.cpu.dcache.WriteReq_mshr_miss_rate::total     0.072101                       # mshr miss rate for WriteReq accesses
system.cpu.dcache.LoadLockedReq_mshr_miss_rate::switch_cpus.data     0.084443                       # mshr miss rate for LoadLockedReq accesses
system.cpu.dcache.LoadLockedReq_mshr_miss_rate::total     0.084443                       # mshr miss rate for LoadLockedReq accesses
system.cpu.dcache.StoreCondReq_mshr_miss_rate::switch_cpus.data     0.000841                       # mshr miss rate for StoreCondReq accesses
system.cpu.dcache.StoreCondReq_mshr_miss_rate::total     0.000841                       # mshr miss rate for StoreCondReq accesses
system.cpu.dcache.demand_mshr_miss_rate::switch_cpus.data     0.062918                       # mshr miss rate for demand accesses
system.cpu.dcache.demand_mshr_miss_rate::total     0.062918                       # mshr miss rate for demand accesses
system.cpu.dcache.overall_mshr_miss_rate::switch_cpus.data     0.062918                       # mshr miss rate for overall accesses
system.cpu.dcache.overall_mshr_miss_rate::total     0.062918                       # mshr miss rate for overall accesses
system.cpu.dcache.ReadReq_avg_mshr_miss_latency::switch_cpus.data 72342.115535                       # average ReadReq mshr miss latency
system.cpu.dcache.ReadReq_avg_mshr_miss_latency::total 72342.115535                       # average ReadReq mshr miss latency
system.cpu.dcache.WriteReq_avg_mshr_miss_latency::switch_cpus.data 85030.274775                       # average WriteReq mshr miss latency
system.cpu.dcache.WriteReq_avg_mshr_miss_latency::total 85030.274775                       # average WriteReq mshr miss latency
system.cpu.dcache.LoadLockedReq_avg_mshr_miss_latency::switch_cpus.data 69424.549550                       # average LoadLockedReq mshr miss latency
system.cpu.dcache.LoadLockedReq_avg_mshr_miss_latency::total 69424.549550                       # average LoadLockedReq mshr miss latency
system.cpu.dcache.StoreCondReq_avg_mshr_miss_latency::switch_cpus.data 21999.500000                       # average StoreCondReq mshr miss latency
system.cpu.dcache.StoreCondReq_avg_mshr_miss_latency::total 21999.500000                       # average StoreCondReq mshr miss latency
system.cpu.dcache.demand_avg_mshr_miss_latency::switch_cpus.data 78733.594056                       # average overall mshr miss latency
system.cpu.dcache.demand_avg_mshr_miss_latency::total 78733.594056                       # average overall mshr miss latency
system.cpu.dcache.overall_avg_mshr_miss_latency::switch_cpus.data 78733.594056                       # average overall mshr miss latency
system.cpu.dcache.overall_avg_mshr_miss_latency::total 78733.594056                       # average overall mshr miss latency
system.cpu.dcache.WriteReq_avg_mshr_uncacheable_latency::switch_cpus.data       223500                       # average WriteReq mshr uncacheable latency
system.cpu.dcache.WriteReq_avg_mshr_uncacheable_latency::total       223500                       # average WriteReq mshr uncacheable latency
system.cpu.dcache.overall_avg_mshr_uncacheable_latency::switch_cpus.data       223500                       # average overall mshr uncacheable latency
system.cpu.dcache.overall_avg_mshr_uncacheable_latency::total       223500                       # average overall mshr uncacheable latency
system.cpu.dcache.no_allocate_misses                0                       # Number of misses that were no-allocate
system.cpu.icache.tags.replacements             10167                       # number of replacements
system.cpu.icache.tags.tagsinuse           511.734706                       # Cycle average of tags in use
system.cpu.icache.tags.total_refs              362864                       # Total number of references to valid blocks.
system.cpu.icache.tags.sampled_refs             10167                       # Sample count of references to valid blocks.
system.cpu.icache.tags.avg_refs             35.690371                       # Average number of references to valid blocks.
system.cpu.icache.tags.warmup_cycle                 0                       # Cycle when the warmup percentage was hit.
system.cpu.icache.tags.occ_blocks::cpu.inst    21.730470                       # Average occupied blocks per requestor
system.cpu.icache.tags.occ_blocks::switch_cpus.inst   490.004236                       # Average occupied blocks per requestor
system.cpu.icache.tags.occ_percent::cpu.inst     0.042442                       # Average percentage of cache occupancy
system.cpu.icache.tags.occ_percent::switch_cpus.inst     0.957040                       # Average percentage of cache occupancy
system.cpu.icache.tags.occ_percent::total     0.999482                       # Average percentage of cache occupancy
system.cpu.icache.tags.occ_task_id_blocks::1024          511                       # Occupied blocks per task id
system.cpu.icache.tags.age_task_id_blocks_1024::0           61                       # Occupied blocks per task id
system.cpu.icache.tags.age_task_id_blocks_1024::1           19                       # Occupied blocks per task id
system.cpu.icache.tags.age_task_id_blocks_1024::2          430                       # Occupied blocks per task id
system.cpu.icache.tags.age_task_id_blocks_1024::3            1                       # Occupied blocks per task id
system.cpu.icache.tags.occ_task_id_percent::1024     0.998047                       # Percentage of cache occupancy per task id
system.cpu.icache.tags.tag_accesses            339703                       # Number of tag accesses
system.cpu.icache.tags.data_accesses           339703                       # Number of data accesses
system.cpu.icache.ReadReq_hits::switch_cpus.inst       152614                       # number of ReadReq hits
system.cpu.icache.ReadReq_hits::total          152614                       # number of ReadReq hits
system.cpu.icache.demand_hits::switch_cpus.inst       152614                       # number of demand (read+write) hits
system.cpu.icache.demand_hits::total           152614                       # number of demand (read+write) hits
system.cpu.icache.overall_hits::switch_cpus.inst       152614                       # number of overall hits
system.cpu.icache.overall_hits::total          152614                       # number of overall hits
system.cpu.icache.ReadReq_misses::switch_cpus.inst        12148                       # number of ReadReq misses
system.cpu.icache.ReadReq_misses::total         12148                       # number of ReadReq misses
system.cpu.icache.demand_misses::switch_cpus.inst        12148                       # number of demand (read+write) misses
system.cpu.icache.demand_misses::total          12148                       # number of demand (read+write) misses
system.cpu.icache.overall_misses::switch_cpus.inst        12148                       # number of overall misses
system.cpu.icache.overall_misses::total         12148                       # number of overall misses
system.cpu.icache.ReadReq_miss_latency::switch_cpus.inst    760421746                       # number of ReadReq miss cycles
system.cpu.icache.ReadReq_miss_latency::total    760421746                       # number of ReadReq miss cycles
system.cpu.icache.demand_miss_latency::switch_cpus.inst    760421746                       # number of demand (read+write) miss cycles
system.cpu.icache.demand_miss_latency::total    760421746                       # number of demand (read+write) miss cycles
system.cpu.icache.overall_miss_latency::switch_cpus.inst    760421746                       # number of overall miss cycles
system.cpu.icache.overall_miss_latency::total    760421746                       # number of overall miss cycles
system.cpu.icache.ReadReq_accesses::switch_cpus.inst       164762                       # number of ReadReq accesses(hits+misses)
system.cpu.icache.ReadReq_accesses::total       164762                       # number of ReadReq accesses(hits+misses)
system.cpu.icache.demand_accesses::switch_cpus.inst       164762                       # number of demand (read+write) accesses
system.cpu.icache.demand_accesses::total       164762                       # number of demand (read+write) accesses
system.cpu.icache.overall_accesses::switch_cpus.inst       164762                       # number of overall (read+write) accesses
system.cpu.icache.overall_accesses::total       164762                       # number of overall (read+write) accesses
system.cpu.icache.ReadReq_miss_rate::switch_cpus.inst     0.073731                       # miss rate for ReadReq accesses
system.cpu.icache.ReadReq_miss_rate::total     0.073731                       # miss rate for ReadReq accesses
system.cpu.icache.demand_miss_rate::switch_cpus.inst     0.073731                       # miss rate for demand accesses
system.cpu.icache.demand_miss_rate::total     0.073731                       # miss rate for demand accesses
system.cpu.icache.overall_miss_rate::switch_cpus.inst     0.073731                       # miss rate for overall accesses
system.cpu.icache.overall_miss_rate::total     0.073731                       # miss rate for overall accesses
system.cpu.icache.ReadReq_avg_miss_latency::switch_cpus.inst 62596.455878                       # average ReadReq miss latency
system.cpu.icache.ReadReq_avg_miss_latency::total 62596.455878                       # average ReadReq miss latency
system.cpu.icache.demand_avg_miss_latency::switch_cpus.inst 62596.455878                       # average overall miss latency
system.cpu.icache.demand_avg_miss_latency::total 62596.455878                       # average overall miss latency
system.cpu.icache.overall_avg_miss_latency::switch_cpus.inst 62596.455878                       # average overall miss latency
system.cpu.icache.overall_avg_miss_latency::total 62596.455878                       # average overall miss latency
system.cpu.icache.blocked_cycles::no_mshrs         1775                       # number of cycles access was blocked
system.cpu.icache.blocked_cycles::no_targets            0                       # number of cycles access was blocked
system.cpu.icache.blocked::no_mshrs                41                       # number of cycles access was blocked
system.cpu.icache.blocked::no_targets               0                       # number of cycles access was blocked
system.cpu.icache.avg_blocked_cycles::no_mshrs    43.292683                       # average number of cycles each access was blocked
system.cpu.icache.avg_blocked_cycles::no_targets          nan                       # average number of cycles each access was blocked
system.cpu.icache.fast_writes                       0                       # number of fast writes performed
system.cpu.icache.cache_copies                      0                       # number of cache copies performed
system.cpu.icache.ReadReq_mshr_hits::switch_cpus.inst         1969                       # number of ReadReq MSHR hits
system.cpu.icache.ReadReq_mshr_hits::total         1969                       # number of ReadReq MSHR hits
system.cpu.icache.demand_mshr_hits::switch_cpus.inst         1969                       # number of demand (read+write) MSHR hits
system.cpu.icache.demand_mshr_hits::total         1969                       # number of demand (read+write) MSHR hits
[...]
system.switch_cpus.iew.wb_count               1106661                       # cumulative count of insts written-back
system.switch_cpus.iew.wb_producers            555642                       # num instructions producing a value
system.switch_cpus.iew.wb_consumers            737570                       # num instructions consuming a value
system.switch_cpus.iew.wb_penalized                 0                       # number of instrctions required to write to 'other' IQ
system.switch_cpus.iew.wb_rate               0.345480                       # insts written-back per cycle
system.switch_cpus.iew.wb_fanout             0.753341                       # average fanout of values written-back
system.switch_cpus.iew.wb_penalized_rate            0                       # fraction of instructions written-back that wrote to 'other' IQ
system.switch_cpus.commit.commitSquashedInsts       273445                       # The number of squashed insts skipped by commit
system.switch_cpus.commit.commitNonSpecStalls        12831                       # The number of times commit has been forced to stall to communicate backwards
system.switch_cpus.commit.branchMispredicts        15535                       # The number of times a branch was mispredicted
system.switch_cpus.commit.committed_per_cycle::samples      2269040                       # Number of insts commited each cycle
system.switch_cpus.commit.committed_per_cycle::mean     0.438782                       # Number of insts commited each cycle
system.switch_cpus.commit.committed_per_cycle::stdev     1.402848                       # Number of insts commited each cycle
system.switch_cpus.commit.committed_per_cycle::underflows            0      0.00%      0.00% # Number of insts commited each cycle
system.switch_cpus.commit.committed_per_cycle::0      1919972     84.62%     84.62% # Number of insts commited each cycle
system.switch_cpus.commit.committed_per_cycle::1       160007      7.05%     91.67% # Number of insts commited each cycle
system.switch_cpus.commit.committed_per_cycle::2        61302      2.70%     94.37% # Number of insts commited each cycle
system.switch_cpus.commit.committed_per_cycle::3        26927      1.19%     95.56% # Number of insts commited each cycle
system.switch_cpus.commit.committed_per_cycle::4        27076      1.19%     96.75% # Number of insts commited each cycle
system.switch_cpus.commit.committed_per_cycle::5        11939      0.53%     97.28% # Number of insts commited each cycle
system.switch_cpus.commit.committed_per_cycle::6        10721      0.47%     97.75% # Number of insts commited each cycle
system.switch_cpus.commit.committed_per_cycle::7         8871      0.39%     98.14% # Number of insts commited each cycle
system.switch_cpus.commit.committed_per_cycle::8        42225      1.86%    100.00% # Number of insts commited each cycle
system.switch_cpus.commit.committed_per_cycle::overflows            0      0.00%    100.00% # Number of insts commited each cycle
system.switch_cpus.commit.committed_per_cycle::min_value            0                       # Number of insts commited each cycle
system.switch_cpus.commit.committed_per_cycle::max_value            8                       # Number of insts commited each cycle
system.switch_cpus.commit.committed_per_cycle::total      2269040                       # Number of insts commited each cycle
system.switch_cpus.commit.committedInsts       995614                       # Number of instructions committed
system.switch_cpus.commit.committedOps         995614                       # Number of ops (including micro ops) committed
system.switch_cpus.commit.swp_count                 0                       # Number of s/w prefetches committed
system.switch_cpus.commit.refs                 333192                       # Number of memory references committed
system.switch_cpus.commit.loads                183137                       # Number of loads committed
system.switch_cpus.commit.membars                6340                       # Number of memory barriers committed
system.switch_cpus.commit.branches             145688                       # Number of branches committed
system.switch_cpus.commit.fp_insts               4403                       # Number of committed floating point instructions.
system.switch_cpus.commit.int_insts            957415                       # Number of committed integer instructions.
system.switch_cpus.commit.function_calls        13486                       # Number of function calls committed.
system.switch_cpus.commit.op_class_0::No_OpClass        18044      1.81%      1.81% # Class of committed instruction
system.switch_cpus.commit.op_class_0::IntAlu       610473     61.32%     63.13% # Class of committed instruction
system.switch_cpus.commit.op_class_0::IntMult         1136      0.11%     63.24% # Class of committed instruction
system.switch_cpus.commit.op_class_0::IntDiv            0      0.00%     63.24% # Class of committed instruction
system.switch_cpus.commit.op_class_0::FloatAdd         1299      0.13%     63.37% # Class of committed instruction
system.switch_cpus.commit.op_class_0::FloatCmp            1      0.00%     63.37% # Class of committed instruction
system.switch_cpus.commit.op_class_0::FloatCvt            2      0.00%     63.37% # Class of committed instruction
system.switch_cpus.commit.op_class_0::FloatMult            1      0.00%     63.37% # Class of committed instruction
system.switch_cpus.commit.op_class_0::FloatDiv          245      0.02%     63.40% # Class of committed instruction
system.switch_cpus.commit.op_class_0::FloatSqrt            0      0.00%     63.40% # Class of committed instruction
system.switch_cpus.commit.op_class_0::SimdAdd            0      0.00%     63.40% # Class of committed instruction
system.switch_cpus.commit.op_class_0::SimdAddAcc            0      0.00%     63.40% # Class of committed instruction
system.switch_cpus.commit.op_class_0::SimdAlu            0      0.00%     63.40% # Class of committed instruction
system.switch_cpus.commit.op_class_0::SimdCmp            0      0.00%     63.40% # Class of committed instruction
system.switch_cpus.commit.op_class_0::SimdCvt            0      0.00%     63.40% # Class of committed instruction
system.switch_cpus.commit.op_class_0::SimdMisc            0      0.00%     63.40% # Class of committed instruction
system.switch_cpus.commit.op_class_0::SimdMult            0      0.00%     63.40% # Class of committed instruction
system.switch_cpus.commit.op_class_0::SimdMultAcc            0      0.00%     63.40% # Class of committed instruction
system.switch_cpus.commit.op_class_0::SimdShift            0      0.00%     63.40% # Class of committed instruction
system.switch_cpus.commit.op_class_0::SimdShiftAcc            0      0.00%     63.40% # Class of committed instruction
system.switch_cpus.commit.op_class_0::SimdSqrt            0      0.00%     63.40% # Class of committed instruction
system.switch_cpus.commit.op_class_0::SimdFloatAdd            0      0.00%     63.40% # Class of committed instruction
system.switch_cpus.commit.op_class_0::SimdFloatAlu            0      0.00%     63.40% # Class of committed instruction
system.switch_cpus.commit.op_class_0::SimdFloatCmp            0      0.00%     63.40% # Class of committed instruction
system.switch_cpus.commit.op_class_0::SimdFloatCvt            0      0.00%     63.40% # Class of committed instruction
system.switch_cpus.commit.op_class_0::SimdFloatDiv            0      0.00%     63.40% # Class of committed instruction
system.switch_cpus.commit.op_class_0::SimdFloatMisc            0      0.00%     63.40% # Class of committed instruction
system.switch_cpus.commit.op_class_0::SimdFloatMult            0      0.00%     63.40% # Class of committed instruction
system.switch_cpus.commit.op_class_0::SimdFloatMultAcc            0      0.00%     63.40% # Class of committed instruction
system.switch_cpus.commit.op_class_0::SimdFloatSqrt            0      0.00%     63.40% # Class of committed instruction
system.switch_cpus.commit.op_class_0::MemRead       189477     19.03%     82.43% # Class of committed instruction
system.switch_cpus.commit.op_class_0::MemWrite       150419     15.11%     97.54% # Class of committed instruction
system.switch_cpus.commit.op_class_0::IprAccess        24517      2.46%    100.00% # Class of committed instruction
system.switch_cpus.commit.op_class_0::InstPrefetch            0      0.00%    100.00% # Class of committed instruction
system.switch_cpus.commit.op_class_0::total       995614                       # Class of committed instruction
system.switch_cpus.commit.bw_lim_events         42225                       # number cycles where commit BW limit reached
system.switch_cpus.rob.rob_reads              3475987                       # The number of ROB reads
system.switch_cpus.rob.rob_writes             2585308                       # The number of ROB writes
system.switch_cpus.timesIdled                    9613                       # Number of times that the entire CPU went into an idle state and unscheduled itself
system.switch_cpus.idleCycles                  887402                       # Total number of cycles that the CPU has spent unscheduled due to idling
system.switch_cpus.committedInsts              978062                       # Number of Instructions Simulated
system.switch_cpus.committedOps                978062                       # Number of Ops (including micro ops) Simulated
system.switch_cpus.cpi                       3.275105                       # CPI: Cycles Per Instruction
system.switch_cpus.cpi_total                 3.275105                       # CPI: Total CPI of All Threads
system.switch_cpus.ipc                       0.305334                       # IPC: Instructions Per Cycle
system.switch_cpus.ipc_total                 0.305334                       # IPC: Total IPC of All Threads
system.switch_cpus.int_regfile_reads          1515139                       # number of integer regfile reads
system.switch_cpus.int_regfile_writes          776671                       # number of integer regfile writes
system.switch_cpus.fp_regfile_reads              3072                       # number of floating regfile reads
system.switch_cpus.fp_regfile_writes             2773                       # number of floating regfile writes
system.switch_cpus.misc_regfile_reads           33624                       # number of misc regfile reads
system.switch_cpus.misc_regfile_writes          19619                       # number of misc regfile writes
system.tol2bus.trans_dist::ReadReq              25229                       # Transaction distribution
system.tol2bus.trans_dist::ReadResp             25229                       # Transaction distribution
system.tol2bus.trans_dist::WriteReq               134                       # Transaction distribution
system.tol2bus.trans_dist::WriteResp              134                       # Transaction distribution
system.tol2bus.trans_dist::Writeback            11890                       # Transaction distribution
system.tol2bus.trans_dist::UpgradeReq               4                       # Transaction distribution
system.tol2bus.trans_dist::UpgradeResp              4                       # Transaction distribution
system.tol2bus.trans_dist::ReadExReq             9407                       # Transaction distribution
system.tol2bus.trans_dist::ReadExResp            9407                       # Transaction distribution
system.tol2bus.pkt_count_system.cpu.icache.mem_side::system.l2.cpu_side        26981                       # Packet count per connected master and slave (bytes)
system.tol2bus.pkt_count_system.cpu.dcache.mem_side::system.l2.cpu_side        54450                       # Packet count per connected master and slave (bytes)
system.tol2bus.pkt_count::total                 81431                       # Packet count per connected master and slave (bytes)
system.tol2bus.pkt_size_system.cpu.icache.mem_side::system.l2.cpu_side       863168                       # Cumulative packet size per connected master and slave (bytes)
system.tol2bus.pkt_size_system.cpu.dcache.mem_side::system.l2.cpu_side      2095408                       # Cumulative packet size per connected master and slave (bytes)
system.tol2bus.pkt_size::total                2958576                       # Cumulative packet size per connected master and slave (bytes)
system.tol2bus.snoops                               7                       # Total snoops (count)
system.tol2bus.snoop_fanout::samples            46664                       # Request fanout histogram
system.tol2bus.snoop_fanout::mean                   1                       # Request fanout histogram
system.tol2bus.snoop_fanout::stdev                  0                       # Request fanout histogram
system.tol2bus.snoop_fanout::underflows             0      0.00%      0.00% # Request fanout histogram
system.tol2bus.snoop_fanout::0                      0      0.00%      0.00% # Request fanout histogram
system.tol2bus.snoop_fanout::1                  46664    100.00%    100.00% # Request fanout histogram
system.tol2bus.snoop_fanout::2                      0      0.00%    100.00% # Request fanout histogram
system.tol2bus.snoop_fanout::overflows              0      0.00%    100.00% # Request fanout histogram
system.tol2bus.snoop_fanout::min_value              1                       # Request fanout histogram
system.tol2bus.snoop_fanout::max_value              1                       # Request fanout histogram
system.tol2bus.snoop_fanout::total              46664                       # Request fanout histogram
system.tol2bus.reqLayer0.occupancy           35289000                       # Layer occupancy (ticks)
system.tol2bus.reqLayer0.utilization              2.2                       # Layer utilization (%)
system.tol2bus.respLayer0.occupancy          21994496                       # Layer occupancy (ticks)
system.tol2bus.respLayer0.utilization             1.4                       # Layer utilization (%)
system.tol2bus.respLayer1.occupancy          34304502                       # Layer occupancy (ticks)
system.tol2bus.respLayer1.utilization             2.1                       # Layer utilization (%)
system.tsunami.ethernet.descDMAReads                0                       # Number of descriptors the device read w/ DMA
system.tsunami.ethernet.descDMAWrites               0                       # Number of descriptors the device wrote w/ DMA
system.tsunami.ethernet.descDmaReadBytes            0                       # number of descriptor bytes read w/ DMA
system.tsunami.ethernet.descDmaWriteBytes            0                       # number of descriptor bytes write w/ DMA
system.tsunami.ethernet.postedSwi                   0                       # number of software interrupts posted to CPU
system.tsunami.ethernet.coalescedSwi              nan                       # average number of Swi's coalesced into each post
system.tsunami.ethernet.totalSwi                    0                       # total number of Swi written to ISR
system.tsunami.ethernet.postedRxIdle                0                       # number of rxIdle interrupts posted to CPU
system.tsunami.ethernet.coalescedRxIdle           nan                       # average number of RxIdle's coalesced into each post
system.tsunami.ethernet.totalRxIdle                 0                       # total number of RxIdle written to ISR
system.tsunami.ethernet.postedRxOk                  0                       # number of RxOk interrupts posted to CPU
system.tsunami.ethernet.coalescedRxOk             nan                       # average number of RxOk's coalesced into each post
system.tsunami.ethernet.totalRxOk                   0                       # total number of RxOk written to ISR
system.tsunami.ethernet.postedRxDesc                0                       # number of RxDesc interrupts posted to CPU
system.tsunami.ethernet.coalescedRxDesc           nan                       # average number of RxDesc's coalesced into each post
system.tsunami.ethernet.totalRxDesc                 0                       # total number of RxDesc written to ISR
system.tsunami.ethernet.postedTxOk                  0                       # number of TxOk interrupts posted to CPU
system.tsunami.ethernet.coalescedTxOk             nan                       # average number of TxOk's coalesced into each post
system.tsunami.ethernet.totalTxOk                   0                       # total number of TxOk written to ISR
system.tsunami.ethernet.postedTxIdle                0                       # number of TxIdle interrupts posted to CPU
system.tsunami.ethernet.coalescedTxIdle           nan                       # average number of TxIdle's coalesced into each post
system.tsunami.ethernet.totalTxIdle                 0                       # total number of TxIdle written to ISR
system.tsunami.ethernet.postedTxDesc                0                       # number of TxDesc interrupts posted to CPU
system.tsunami.ethernet.coalescedTxDesc           nan                       # average number of TxDesc's coalesced into each post
system.tsunami.ethernet.totalTxDesc                 0                       # total number of TxDesc written to ISR
system.tsunami.ethernet.postedRxOrn                 0                       # number of RxOrn posted to CPU
system.tsunami.ethernet.coalescedRxOrn            nan                       # average number of RxOrn's coalesced into each post
system.tsunami.ethernet.totalRxOrn                  0                       # total number of RxOrn written to ISR
system.tsunami.ethernet.coalescedTotal            nan                       # average number of interrupts coalesced into each post
system.tsunami.ethernet.postedInterrupts            0                       # number of posts to CPU
system.tsunami.ethernet.droppedPackets              0                       # number of packets dropped
system.switch_cpus.kern.inst.arm                    0                       # number of arm instructions executed
system.switch_cpus.kern.inst.quiesce                0                       # number of quiesce instructions executed
system.switch_cpus.kern.inst.hwrei                  0                       # number of hwrei instructions executed
system.switch_cpus.kern.mode_switch::kernel            0                       # number of protection mode switches
system.switch_cpus.kern.mode_switch::user            0                       # number of protection mode switches
system.switch_cpus.kern.mode_switch::idle            0                       # number of protection mode switches
system.switch_cpus.kern.mode_good::kernel            0                      
system.switch_cpus.kern.mode_good::user             0                      
system.switch_cpus.kern.mode_good::idle             0                      
system.switch_cpus.kern.mode_switch_good::kernel          nan                       # fraction of useful protection mode switches
system.switch_cpus.kern.mode_switch_good::user          nan                       # fraction of useful protection mode switches
system.switch_cpus.kern.mode_switch_good::idle          nan                       # fraction of useful protection mode switches
system.switch_cpus.kern.mode_switch_good::total          nan                       # fraction of useful protection mode switches
system.switch_cpus.kern.mode_ticks::kernel            0                       # number of ticks spent at the given mode
system.switch_cpus.kern.mode_ticks::user            0                       # number of ticks spent at the given mode
system.switch_cpus.kern.mode_ticks::idle            0                       # number of ticks spent at the given mode
system.switch_cpus.kern.swap_context                0                       # number of times the context was actually changed

---------- End Simulation Statistics   ----------
