
---------- Begin Simulation Statistics ----------
sim_seconds                                  0.000664                       # Number of seconds simulated
sim_ticks                                   664334000                       # Number of ticks simulated
final_tick                               2255105829500                       # Number of ticks from beginning of simulation (restored from checkpoints and never reset)
sim_freq                                 1000000000000                       # Frequency of simulated ticks
host_inst_rate                               37991688                       # Simulator instruction rate (inst/s)
host_op_rate                                 37991577                       # Simulator op (including micro ops) rate (op/s)
host_tick_rate                              257575895                       # Simulator tick rate (ticks/s)
host_mem_usage                                 736364                       # Number of bytes of host memory used
host_seconds                                     2.58                       # Real time elapsed on the host
sim_insts                                    97986792                       # Number of instructions simulated
sim_ops                                      97986792                       # Number of ops (including micro ops) simulated
system.voltage_domain.voltage                       1                       # Voltage in Volts
system.clk_domain.clock                          1000                       # Clock period in ticks
system.mem_ctrls.bytes_read::switch_cpus.inst       111936                       # Number of bytes read from this memory
system.mem_ctrls.bytes_read::switch_cpus.data       230336                       # Number of bytes read from this memory
system.mem_ctrls.bytes_read::total             342272                       # Number of bytes read from this memory
system.mem_ctrls.bytes_inst_read::switch_cpus.inst       111936                       # Number of instructions bytes read from this memory
system.mem_ctrls.bytes_inst_read::total        111936                       # Number of instructions bytes read from this memory
system.mem_ctrls.bytes_written::writebacks       156096                       # Number of bytes written to this memory
system.mem_ctrls.bytes_written::total          156096                       # Number of bytes written to this memory
system.mem_ctrls.num_reads::switch_cpus.inst         1749                       # Number of read requests responded to by this memory
system.mem_ctrls.num_reads::switch_cpus.data         3599                       # Number of read requests responded to by this memory
system.mem_ctrls.num_reads::total                5348                       # Number of read requests responded to by this memory
system.mem_ctrls.num_writes::writebacks          2439                       # Number of write requests responded to by this memory
system.mem_ctrls.num_writes::total               2439                       # Number of write requests responded to by this memory
system.mem_ctrls.bw_read::switch_cpus.inst    168493559                       # Total read bandwidth from this memory (bytes/s)
system.mem_ctrls.bw_read::switch_cpus.data    346717163                       # Total read bandwidth from this memory (bytes/s)
system.mem_ctrls.bw_read::total             515210722                       # Total read bandwidth from this memory (bytes/s)
system.mem_ctrls.bw_inst_read::switch_cpus.inst    168493559                       # Instruction read bandwidth from this memory (bytes/s)
system.mem_ctrls.bw_inst_read::total        168493559                       # Instruction read bandwidth from this memory (bytes/s)
system.mem_ctrls.bw_write::writebacks       234966147                       # Write bandwidth from this memory (bytes/s)
system.mem_ctrls.bw_write::total            234966147                       # Write bandwidth from this memory (bytes/s)
system.mem_ctrls.bw_total::writebacks       234966147                       # Total bandwidth to/from this memory (bytes/s)
system.mem_ctrls.bw_total::switch_cpus.inst    168493559                       # Total bandwidth to/from this memory (bytes/s)
system.mem_ctrls.bw_total::switch_cpus.data    346717163                       # Total bandwidth to/from this memory (bytes/s)
system.mem_ctrls.bw_total::total            750176869                       # Total bandwidth to/from this memory (bytes/s)
system.mem_ctrls.readReqs                        5348                       # Number of read requests accepted
system.mem_ctrls.writeReqs                       2439                       # Number of write requests accepted
system.mem_ctrls.readBursts                      5348                       # Number of DRAM read bursts, including those serviced by the write queue
system.mem_ctrls.writeBursts                     2439                       # Number of DRAM write bursts, including those merged in the write queue
system.mem_ctrls.bytesReadDRAM                 340160                       # Total number of bytes read from DRAM
system.mem_ctrls.bytesReadWrQ                    2112                       # Total number of bytes read from write queue
system.mem_ctrls.bytesWritten                  154368                       # Total number of bytes written to DRAM
system.mem_ctrls.bytesReadSys                  342272                       # Total read bytes from the system interface side
system.mem_ctrls.bytesWrittenSys               156096                       # Total written bytes from the system interface side
system.mem_ctrls.servicedByWrQ                     33                       # Number of DRAM read bursts serviced by the write queue
system.mem_ctrls.mergedWrBursts                     0                       # Number of DRAM write bursts merged with an existing one
system.mem_ctrls.neitherReadNorWriteReqs            0                       # Number of requests that are neither read nor write
system.mem_ctrls.perBankRdBursts::0               521                       # Per bank write bursts
system.mem_ctrls.perBankRdBursts::1               185                       # Per bank write bursts
system.mem_ctrls.perBankRdBursts::2               286                       # Per bank write bursts
system.mem_ctrls.perBankRdBursts::3               452                       # Per bank write bursts
system.mem_ctrls.perBankRdBursts::4               115                       # Per bank write bursts
system.mem_ctrls.perBankRdBursts::5               474                       # Per bank write bursts
system.mem_ctrls.perBankRdBursts::6               205                       # Per bank write bursts
system.mem_ctrls.perBankRdBursts::7               308                       # Per bank write bursts
system.mem_ctrls.perBankRdBursts::8               407                       # Per bank write bursts
system.mem_ctrls.perBankRdBursts::9               228                       # Per bank write bursts
system.mem_ctrls.perBankRdBursts::10              382                       # Per bank write bursts
system.mem_ctrls.perBankRdBursts::11              613                       # Per bank write bursts
system.mem_ctrls.perBankRdBursts::12              148                       # Per bank write bursts
system.mem_ctrls.perBankRdBursts::13              568                       # Per bank write bursts
system.mem_ctrls.perBankRdBursts::14              219                       # Per bank write bursts
system.mem_ctrls.perBankRdBursts::15              204                       # Per bank write bursts
system.mem_ctrls.perBankWrBursts::0               111                       # Per bank write bursts
system.mem_ctrls.perBankWrBursts::1                81                       # Per bank write bursts
system.mem_ctrls.perBankWrBursts::2               145                       # Per bank write bursts
system.mem_ctrls.perBankWrBursts::3               425                       # Per bank write bursts
system.mem_ctrls.perBankWrBursts::4                52                       # Per bank write bursts
system.mem_ctrls.perBankWrBursts::5               422                       # Per bank write bursts
system.mem_ctrls.perBankWrBursts::6                96                       # Per bank write bursts
system.mem_ctrls.perBankWrBursts::7               143                       # Per bank write bursts
system.mem_ctrls.perBankWrBursts::8               253                       # Per bank write bursts
system.mem_ctrls.perBankWrBursts::9                89                       # Per bank write bursts
system.mem_ctrls.perBankWrBursts::10              151                       # Per bank write bursts
system.mem_ctrls.perBankWrBursts::11              124                       # Per bank write bursts
system.mem_ctrls.perBankWrBursts::12               34                       # Per bank write bursts
system.mem_ctrls.perBankWrBursts::13              134                       # Per bank write bursts
system.mem_ctrls.perBankWrBursts::14               65                       # Per bank write bursts
system.mem_ctrls.perBankWrBursts::15               87                       # Per bank write bursts
system.mem_ctrls.numRdRetry                         0                       # Number of times read queue was full causing retry
system.mem_ctrls.numWrRetry                         0                       # Number of times write queue was full causing retry
system.mem_ctrls.totGap                     663935000                       # Total gap between requests
system.mem_ctrls.readPktSize::0                     0                       # Read request sizes (log2)
system.mem_ctrls.readPktSize::1                     0                       # Read request sizes (log2)
system.mem_ctrls.readPktSize::2                     0                       # Read request sizes (log2)
system.mem_ctrls.readPktSize::3                     0                       # Read request sizes (log2)
system.mem_ctrls.readPktSize::4                     0                       # Read request sizes (log2)
system.mem_ctrls.readPktSize::5                     0                       # Read request sizes (log2)
system.mem_ctrls.readPktSize::6                  5348                       # Read request sizes (log2)
system.mem_ctrls.writePktSize::0                    0                       # Write request sizes (log2)
system.mem_ctrls.writePktSize::1                    0                       # Write request sizes (log2)
system.mem_ctrls.writePktSize::2                    0                       # Write request sizes (log2)
system.mem_ctrls.writePktSize::3                    0                       # Write request sizes (log2)
system.mem_ctrls.writePktSize::4                    0                       # Write request sizes (log2)
system.mem_ctrls.writePktSize::5                    0                       # Write request sizes (log2)
system.mem_ctrls.writePktSize::6                 2439                       # Write request sizes (log2)
system.mem_ctrls.rdQLenPdf::0                    3291                       # What read queue length does an incoming req see
system.mem_ctrls.rdQLenPdf::1                    1269                       # What read queue length does an incoming req see
system.mem_ctrls.rdQLenPdf::2                     515                       # What read queue length does an incoming req see
system.mem_ctrls.rdQLenPdf::3                     240                       # What read queue length does an incoming req see
system.mem_ctrls.rdQLenPdf::4                       0                       # What read queue length does an incoming req see
system.mem_ctrls.rdQLenPdf::5                       0                       # What read queue length does an incoming req see
system.mem_ctrls.rdQLenPdf::6                       0                       # What read queue length does an incoming req see
system.mem_ctrls.rdQLenPdf::7                       0                       # What read queue length does an incoming req see
system.mem_ctrls.rdQLenPdf::8                       0                       # What read queue length does an incoming req see
system.mem_ctrls.rdQLenPdf::9                       0                       # What read queue length does an incoming req see
system.mem_ctrls.rdQLenPdf::10                      0                       # What read queue length does an incoming req see
system.mem_ctrls.rdQLenPdf::11                      0                       # What read queue length does an incoming req see
system.mem_ctrls.rdQLenPdf::12                      0                       # What read queue length does an incoming req see
system.mem_ctrls.rdQLenPdf::13                      0                       # What read queue length does an incoming req see
system.mem_ctrls.rdQLenPdf::14                      0                       # What read queue length does an incoming req see
system.mem_ctrls.rdQLenPdf::15                      0                       # What read queue length does an incoming req see
system.mem_ctrls.rdQLenPdf::16                      0                       # What read queue length does an incoming req see
system.mem_ctrls.rdQLenPdf::17                      0                       # What read queue length does an incoming req see
system.mem_ctrls.rdQLenPdf::18                      0                       # What read queue length does an incoming req see
system.mem_ctrls.rdQLenPdf::19                      0                       # What read queue length does an incoming req see
system.mem_ctrls.rdQLenPdf::20                      0                       # What read queue length does an incoming req see
system.mem_ctrls.rdQLenPdf::21                      0                       # What read queue length does an incoming req see
system.mem_ctrls.rdQLenPdf::22                      0                       # What read queue length does an incoming req see
system.mem_ctrls.rdQLenPdf::23                      0                       # What read queue length does an incoming req see
system.mem_ctrls.rdQLenPdf::24                      0                       # What read queue length does an incoming req see
system.mem_ctrls.rdQLenPdf::25                      0                       # What read queue length does an incoming req see
system.mem_ctrls.rdQLenPdf::26                      0                       # What read queue length does an incoming req see
system.mem_ctrls.rdQLenPdf::27                      0                       # What read queue length does an incoming req see
system.mem_ctrls.rdQLenPdf::28                      0                       # What read queue length does an incoming req see
system.mem_ctrls.rdQLenPdf::29                      0                       # What read queue length does an incoming req see
system.mem_ctrls.rdQLenPdf::30                      0                       # What read queue length does an incoming req see
system.mem_ctrls.rdQLenPdf::31                      0                       # What read queue length does an incoming req see
system.mem_ctrls.wrQLenPdf::0                       1                       # What write queue length does an incoming req see
system.mem_ctrls.wrQLenPdf::1                       1                       # What write queue length does an incoming req see
system.mem_ctrls.wrQLenPdf::2                       1                       # What write queue length does an incoming req see
system.mem_ctrls.wrQLenPdf::3                       1                       # What write queue length does an incoming req see
system.mem_ctrls.wrQLenPdf::4                       1                       # What write queue length does an incoming req see
system.mem_ctrls.wrQLenPdf::5                       1                       # What write queue length does an incoming req see
system.mem_ctrls.wrQLenPdf::6                       1                       # What write queue length does an incoming req see
system.mem_ctrls.wrQLenPdf::7                       1                       # What write queue length does an incoming req see
system.mem_ctrls.wrQLenPdf::8                       1                       # What write queue length does an incoming req see
system.mem_ctrls.wrQLenPdf::9                       1                       # What write queue length does an incoming req see
system.mem_ctrls.wrQLenPdf::10                      1                       # What write queue length does an incoming req see
system.mem_ctrls.wrQLenPdf::11                      1                       # What write queue length does an incoming req see
system.mem_ctrls.wrQLenPdf::12                      1                       # What write queue length does an incoming req see
system.mem_ctrls.wrQLenPdf::13                      1                       # What write queue length does an incoming req see
system.mem_ctrls.wrQLenPdf::14                      1                       # What write queue length does an incoming req see
system.mem_ctrls.wrQLenPdf::15                     37                       # What write queue length does an incoming req see
system.mem_ctrls.wrQLenPdf::16                     40                       # What write queue length does an incoming req see
system.mem_ctrls.wrQLenPdf::17                    102                       # What write queue length does an incoming req see
system.mem_ctrls.wrQLenPdf::18                    129                       # What write queue length does an incoming req see
system.mem_ctrls.wrQLenPdf::19                    142                       # What write queue length does an incoming req see
system.mem_ctrls.wrQLenPdf::20                    149                       # What write queue length does an incoming req see
system.mem_ctrls.wrQLenPdf::21                    151                       # What write queue length does an incoming req see
system.mem_ctrls.wrQLenPdf::22                    150                       # What write queue length does an incoming req see
system.mem_ctrls.wrQLenPdf::23                    153                       # What write queue length does an incoming req see
system.mem_ctrls.wrQLenPdf::24                    152                       # What write queue length does an incoming req see
system.mem_ctrls.wrQLenPdf::25                    153                       # What write queue length does an incoming req see
system.mem_ctrls.wrQLenPdf::26                    169                       # What write queue length does an incoming req see
system.mem_ctrls.wrQLenPdf::27                    149                       # What write queue length does an incoming req see
system.mem_ctrls.wrQLenPdf::28                    152                       # What write queue length does an incoming req see
system.mem_ctrls.wrQLenPdf::29                    160                       # What write queue length does an incoming req see
system.mem_ctrls.wrQLenPdf::30                    146                       # What write queue length does an incoming req see
system.mem_ctrls.wrQLenPdf::31                    145                       # What write queue length does an incoming req see
system.mem_ctrls.wrQLenPdf::32                    145                       # What write queue length does an incoming req see
system.mem_ctrls.wrQLenPdf::33                      0                       # What write queue length does an incoming req see
system.mem_ctrls.wrQLenPdf::34                      0                       # What write queue length does an incoming req see
system.mem_ctrls.wrQLenPdf::35                      0                       # What write queue length does an incoming req see
system.mem_ctrls.wrQLenPdf::36                      0                       # What write queue length does an incoming req see
system.mem_ctrls.wrQLenPdf::37                      0                       # What write queue length does an incoming req see
system.mem_ctrls.wrQLenPdf::38                      0                       # What write queue length does an incoming req see
system.mem_ctrls.wrQLenPdf::39                      0                       # What write queue length does an incoming req see
system.mem_ctrls.wrQLenPdf::40                      0                       # What write queue length does an incoming req see
system.mem_ctrls.wrQLenPdf::41                      0                       # What write queue length does an incoming req see
system.mem_ctrls.wrQLenPdf::42                      0                       # What write queue length does an incoming req see
system.mem_ctrls.wrQLenPdf::43                      0                       # What write queue length does an incoming req see
system.mem_ctrls.wrQLenPdf::44                      0                       # What write queue length does an incoming req see
system.mem_ctrls.wrQLenPdf::45                      0                       # What write queue length does an incoming req see
system.mem_ctrls.wrQLenPdf::46                      0                       # What write queue length does an incoming req see
system.mem_ctrls.wrQLenPdf::47                      0                       # What write queue length does an incoming req see
system.mem_ctrls.wrQLenPdf::48                      0                       # What write queue length does an incoming req see
system.mem_ctrls.wrQLenPdf::49                      0                       # What write queue length does an incoming req see
system.mem_ctrls.wrQLenPdf::50                      0                       # What write queue length does an incoming req see
system.mem_ctrls.wrQLenPdf::51                      0                       # What write queue length does an incoming req see
system.mem_ctrls.wrQLenPdf::52                      0                       # What write queue length does an incoming req see
system.mem_ctrls.wrQLenPdf::53                      0                       # What write queue length does an incoming req see
system.mem_ctrls.wrQLenPdf::54                      0                       # What write queue length does an incoming req see
system.mem_ctrls.wrQLenPdf::55                      0                       # What write queue length does an incoming req see
system.mem_ctrls.wrQLenPdf::56                      0                       # What write queue length does an incoming req see
system.mem_ctrls.wrQLenPdf::57                      0                       # What write queue length does an incoming req see
system.mem_ctrls.wrQLenPdf::58                      0                       # What write queue length does an incoming req see
system.mem_ctrls.wrQLenPdf::59                      0                       # What write queue length does an incoming req see
system.mem_ctrls.wrQLenPdf::60                      0                       # What write queue length does an incoming req see
system.mem_ctrls.wrQLenPdf::61                      0                       # What write queue length does an incoming req see
system.mem_ctrls.wrQLenPdf::62                      0                       # What write queue length does an incoming req see
system.mem_ctrls.wrQLenPdf::63                      0                       # What write queue length does an incoming req see
system.mem_ctrls.bytesPerActivate::samples         2081                       # Bytes accessed per row activation
system.mem_ctrls.bytesPerActivate::mean    237.578087                       # Bytes accessed per row activation
system.mem_ctrls.bytesPerActivate::gmean   143.357376                       # Bytes accessed per row activation
system.mem_ctrls.bytesPerActivate::stdev   281.382372                       # Bytes accessed per row activation
system.mem_ctrls.bytesPerActivate::0-127          964     46.32%     46.32% # Bytes accessed per row activation
system.mem_ctrls.bytesPerActivate::128-255          539     25.90%     72.22% # Bytes accessed per row activation
system.mem_ctrls.bytesPerActivate::256-383          171      8.22%     80.44% # Bytes accessed per row activation
system.mem_ctrls.bytesPerActivate::384-511           93      4.47%     84.91% # Bytes accessed per row activation
system.mem_ctrls.bytesPerActivate::512-639           70      3.36%     88.27% # Bytes accessed per row activation
system.mem_ctrls.bytesPerActivate::640-767           36      1.73%     90.00% # Bytes accessed per row activation
system.mem_ctrls.bytesPerActivate::768-895           36      1.73%     91.73% # Bytes accessed per row activation
system.mem_ctrls.bytesPerActivate::896-1023           23      1.11%     92.84% # Bytes accessed per row activation
system.mem_ctrls.bytesPerActivate::1024-1151          149      7.16%    100.00% # Bytes accessed per row activation
system.mem_ctrls.bytesPerActivate::total         2081                       # Bytes accessed per row activation
system.mem_ctrls.rdPerTurnAround::samples          145                       # Reads before turning the bus around for writes
system.mem_ctrls.rdPerTurnAround::mean      36.496552                       # Reads before turning the bus around for writes
system.mem_ctrls.rdPerTurnAround::gmean     30.892651                       # Reads before turning the bus around for writes
system.mem_ctrls.rdPerTurnAround::stdev     24.697369                       # Reads before turning the bus around for writes
system.mem_ctrls.rdPerTurnAround::0-7               1      0.69%      0.69% # Reads before turning the bus around for writes
system.mem_ctrls.rdPerTurnAround::8-15              7      4.83%      5.52% # Reads before turning the bus around for writes
system.mem_ctrls.rdPerTurnAround::16-23            42     28.97%     34.48% # Reads before turning the bus around for writes
system.mem_ctrls.rdPerTurnAround::24-31            33     22.76%     57.24% # Reads before turning the bus around for writes
system.mem_ctrls.rdPerTurnAround::32-39            18     12.41%     69.66% # Reads before turning the bus around for writes
system.mem_ctrls.rdPerTurnAround::40-47            12      8.28%     77.93% # Reads before turning the bus around for writes
system.mem_ctrls.rdPerTurnAround::48-55            13      8.97%     86.90% # Reads before turning the bus around for writes
system.mem_ctrls.rdPerTurnAround::56-63             5      3.45%     90.34% # Reads before turning the bus around for writes
system.mem_ctrls.rdPerTurnAround::64-71             4      2.76%     93.10% # Reads before turning the bus around for writes
system.mem_ctrls.rdPerTurnAround::72-79             1      0.69%     93.79% # Reads before turning the bus around for writes
system.mem_ctrls.rdPerTurnAround::80-87             1      0.69%     94.48% # Reads before turning the bus around for writes
system.mem_ctrls.rdPerTurnAround::88-95             1      0.69%     95.17% # Reads before turning the bus around for writes
system.mem_ctrls.rdPerTurnAround::96-103            2      1.38%     96.55% # Reads before turning the bus around for writes
system.mem_ctrls.rdPerTurnAround::104-111            1      0.69%     97.24% # Reads before turning the bus around for writes
system.mem_ctrls.rdPerTurnAround::112-119            1      0.69%     97.93% # Reads before turning the bus around for writes
system.mem_ctrls.rdPerTurnAround::128-135            1      0.69%     98.62% # Reads before turning the bus around for writes
system.mem_ctrls.rdPerTurnAround::136-143            1      0.69%     99.31% # Reads before turning the bus around for writes
system.mem_ctrls.rdPerTurnAround::144-151            1      0.69%    100.00% # Reads before turning the bus around for writes
system.mem_ctrls.rdPerTurnAround::total           145                       # Reads before turning the bus around for writes
system.mem_ctrls.wrPerTurnAround::samples          145                       # Writes before turning the bus around for reads
system.mem_ctrls.wrPerTurnAround::mean      16.634483                       # Writes before turning the bus around for reads
system.mem_ctrls.wrPerTurnAround::gmean     16.599558                       # Writes before turning the bus around for reads
system.mem_ctrls.wrPerTurnAround::stdev      1.116877                       # Writes before turning the bus around for reads
system.mem_ctrls.wrPerTurnAround::16              105     72.41%     72.41% # Writes before turning the bus around for reads
system.mem_ctrls.wrPerTurnAround::17                4      2.76%     75.17% # Writes before turning the bus around for reads
system.mem_ctrls.wrPerTurnAround::18               24     16.55%     91.72% # Writes before turning the bus around for reads
system.mem_ctrls.wrPerTurnAround::19                9      6.21%     97.93% # Writes before turning the bus around for reads
system.mem_ctrls.wrPerTurnAround::20                2      1.38%     99.31% # Writes before turning the bus around for reads
system.mem_ctrls.wrPerTurnAround::21                1      0.69%    100.00% # Writes before turning the bus around for reads
system.mem_ctrls.wrPerTurnAround::total           145                       # Writes before turning the bus around for reads
system.mem_ctrls.totQLat                     73170500                       # Total ticks spent queuing
system.mem_ctrls.totMemAccLat               172826750                       # Total ticks spent from burst creation until serviced by the DRAM
system.mem_ctrls.totBusLat                   26575000                       # Total ticks spent in databus transfers
system.mem_ctrls.avgQLat                     13766.79                       # Average queueing delay per DRAM burst
system.mem_ctrls.avgBusLat                    5000.00                       # Average bus latency per DRAM burst
system.mem_ctrls.avgMemAccLat                32516.79                       # Average memory access latency per DRAM burst
system.mem_ctrls.avgRdBW                       512.03                       # Average DRAM read bandwidth in MiByte/s
system.mem_ctrls.avgWrBW                       232.37                       # Average achieved write bandwidth in MiByte/s
system.mem_ctrls.avgRdBWSys                    515.21                       # Average system read bandwidth in MiByte/s
system.mem_ctrls.avgWrBWSys                    234.97                       # Average system write bandwidth in MiByte/s
system.mem_ctrls.peakBW                      12800.00                       # Theoretical peak bandwidth in MiByte/s
system.mem_ctrls.busUtil                         5.82                       # Data bus utilization in percentage
system.mem_ctrls.busUtilRead                     4.00                       # Data bus utilization in percentage for reads
system.mem_ctrls.busUtilWrite                    1.82                       # Data bus utilization in percentage for writes
system.mem_ctrls.avgRdQLen                       1.39                       # Average read queue length when enqueuing
system.mem_ctrls.avgWrQLen                      25.04                       # Average write queue length when enqueuing
system.mem_ctrls.readRowHits                     4048                       # Number of row buffer hits during reads
system.mem_ctrls.writeRowHits                    1596                       # Number of row buffer hits during writes
system.mem_ctrls.readRowHitRate                 76.16                       # Row buffer hit rate for reads
system.mem_ctrls.writeRowHitRate                65.44                       # Row buffer hit rate for writes
system.mem_ctrls.avgGap                      85261.98                       # Average gap between requests
system.mem_ctrls.pageHitRate                    72.79                       # Row buffer hit rate, read and write combined
system.mem_ctrls_0.actEnergy                  7854840                       # Energy for activate commands per rank (pJ)
system.mem_ctrls_0.preEnergy                  4285875                       # Energy for precharge commands per rank (pJ)
system.mem_ctrls_0.readEnergy                19843200                       # Energy for read commands per rank (pJ)
system.mem_ctrls_0.writeEnergy                9558000                       # Energy for write commands per rank (pJ)
system.mem_ctrls_0.refreshEnergy             43227600                       # Energy for refresh commands per rank (pJ)
system.mem_ctrls_0.actBackEnergy            367092540                       # Energy for active background per rank (pJ)
system.mem_ctrls_0.preBackEnergy             75243750                       # Energy for precharge background per rank (pJ)
system.mem_ctrls_0.totalEnergy              527105805                       # Total energy per rank (pJ)
system.mem_ctrls_0.averagePower            796.122596                       # Core power per rank (mW)
system.mem_ctrls_0.memoryStateTime::IDLE    122675250                       # Time in different power states
system.mem_ctrls_0.memoryStateTime::REF      22100000                       # Time in different power states
system.mem_ctrls_0.memoryStateTime::PRE_PDN            0                       # Time in different power states
system.mem_ctrls_0.memoryStateTime::ACT     517329750                       # Time in different power states
system.mem_ctrls_0.memoryStateTime::ACT_PDN            0                       # Time in different power states
system.mem_ctrls_1.actEnergy                  7877520                       # Energy for activate commands per rank (pJ)
system.mem_ctrls_1.preEnergy                  4298250                       # Energy for precharge commands per rank (pJ)
system.mem_ctrls_1.readEnergy                21598200                       # Energy for read commands per rank (pJ)
system.mem_ctrls_1.writeEnergy                6071760                       # Energy for write commands per rank (pJ)
system.mem_ctrls_1.refreshEnergy             43227600                       # Energy for refresh commands per rank (pJ)
system.mem_ctrls_1.actBackEnergy            398339370                       # Energy for active background per rank (pJ)
system.mem_ctrls_1.preBackEnergy             47838000                       # Energy for precharge background per rank (pJ)
system.mem_ctrls_1.totalEnergy              529250700                       # Total energy per rank (pJ)
system.mem_ctrls_1.averagePower            799.354627                       # Core power per rank (mW)
system.mem_ctrls_1.memoryStateTime::IDLE     77028750                       # Time in different power states
system.mem_ctrls_1.memoryStateTime::REF      22100000                       # Time in different power states
system.mem_ctrls_1.memoryStateTime::PRE_PDN            0                       # Time in different power states
system.mem_ctrls_1.memoryStateTime::ACT     562982250                       # Time in different power states
system.mem_ctrls_1.memoryStateTime::ACT_PDN            0                       # Time in different power states
system.cpu_voltage_domain.voltage                   1                       # Voltage in Volts
system.cpu_clk_domain.clock                       500                       # Clock period in ticks
system.cpu.dtb.fetch_hits                           0                       # ITB hits
system.cpu.dtb.fetch_misses                         0                       # ITB misses
system.cpu.dtb.fetch_acv                            0                       # ITB acv
system.cpu.dtb.fetch_accesses                       0                       # ITB accesses
system.cpu.dtb.read_hits                            0                       # DTB read hits
system.cpu.dtb.read_misses                          0                       # DTB read misses
system.cpu.dtb.read_acv                             0                       # DTB read access violations
system.cpu.dtb.read_accesses                        0                       # DTB read accesses
system.cpu.dtb.write_hits                           0                       # DTB write hits
system.cpu.dtb.write_misses                         0                       # DTB write misses
system.cpu.dtb.write_acv                            0                       # DTB write access violations
system.cpu.dtb.write_accesses                       0                       # DTB write accesses
system.cpu.dtb.data_hits                            0                       # DTB hits
system.cpu.dtb.data_misses                          0                       # DTB misses
system.cpu.dtb.data_acv                             0                       # DTB access violations
system.cpu.dtb.data_accesses                        0                       # DTB accesses
system.cpu.itb.fetch_hits                           0                       # ITB hits
system.cpu.itb.fetch_misses                         0                       # ITB misses
system.cpu.itb.fetch_acv                            0                       # ITB acv
system.cpu.itb.fetch_accesses                       0                       # ITB accesses
system.cpu.itb.read_hits                            0                       # DTB read hits
system.cpu.itb.read_misses                          0                       # DTB read misses
system.cpu.itb.read_acv                             0                       # DTB read access violations
system.cpu.itb.read_accesses                        0                       # DTB read accesses
system.cpu.itb.write_hits                           0                       # DTB write hits
system.cpu.itb.write_misses                         0                       # DTB write misses
system.cpu.itb.write_acv                            0                       # DTB write access violations
system.cpu.itb.write_accesses                       0                       # DTB write accesses
system.cpu.itb.data_hits                            0                       # DTB hits
system.cpu.itb.data_misses                          0                       # DTB misses
system.cpu.itb.data_acv                             0                       # DTB access violations
system.cpu.itb.data_accesses                        0                       # DTB accesses
system.cpu.numCycles                                0                       # number of cpu cycles simulated
system.cpu.numWorkItemsStarted                      0                       # number of work items this cpu started
system.cpu.numWorkItemsCompleted                    0                       # number of work items this cpu completed
system.cpu.committedInsts                           0                       # Number of instructions committed
system.cpu.committedOps                             0                       # Number of ops (including micro ops) committed
system.cpu.num_int_alu_accesses                     0                       # Number of integer alu accesses
system.cpu.num_fp_alu_accesses                      0                       # Number of float alu accesses
system.cpu.num_func_calls                           0                       # number of times a function call or return occured
system.cpu.num_conditional_control_insts            0                       # number of instructions that are conditional controls
system.cpu.num_int_insts                            0                       # number of integer instructions
system.cpu.num_fp_insts                             0                       # number of float instructions
system.cpu.num_int_register_reads                   0                       # number of times the integer registers were read
system.cpu.num_int_register_writes                  0                       # number of times the integer registers were written
system.cpu.num_fp_register_reads                    0                       # number of times the floating registers were read
system.cpu.num_fp_register_writes                   0                       # number of times the floating registers were written
system.cpu.num_mem_refs                             0                       # number of memory refs
system.cpu.num_load_insts                           0                       # Number of load instructions
system.cpu.num_store_insts                          0                       # Number of store instructions
system.cpu.num_idle_cycles                          0                       # Number of idle cycles
system.cpu.num_busy_cycles                          0                       # Number of busy cycles
system.cpu.not_idle_fraction                        1                       # Percentage of non-idle cycles
system.cpu.idle_fraction                            0                       # Percentage of idle cycles
system.cpu.op_class::No_OpClass                     0                       # Class of executed instruction
system.cpu.op_class::IntAlu                         0                       # Class of executed instruction
system.cpu.op_class::IntMult                        0                       # Class of executed instruction
system.cpu.op_class::IntDiv                         0                       # Class of executed instruction
system.cpu.op_class::FloatAdd                       0                       # Class of executed instruction
system.cpu.op_class::FloatCmp                       0                       # Class of executed instruction
system.cpu.op_class::FloatCvt                       0                       # Class of executed instruction
system.cpu.op_class::FloatMult                      0                       # Class of executed instruction
system.cpu.op_class::FloatDiv                       0                       # Class of executed instruction
system.cpu.op_class::FloatSqrt                      0                       # Class of executed instruction
system.cpu.op_class::SimdAdd                        0                       # Class of executed instruction
system.cpu.op_class::SimdAddAcc                     0                       # Class of executed instruction
system.cpu.op_class::SimdAlu                        0                       # Class of executed instruction
system.cpu.op_class::SimdCmp                        0                       # Class of executed instruction
system.cpu.op_class::SimdCvt                        0                       # Class of executed instruction
system.cpu.op_class::SimdMisc                       0                       # Class of executed instruction
system.cpu.op_class::SimdMult                       0                       # Class of executed instruction
system.cpu.op_class::SimdMultAcc                    0                       # Class of executed instruction
system.cpu.op_class::SimdShift                      0                       # Class of executed instruction
system.cpu.op_class::SimdShiftAcc                   0                       # Class of executed instruction
system.cpu.op_class::SimdSqrt                       0                       # Class of executed instruction
system.cpu.op_class::SimdFloatAdd                   0                       # Class of executed instruction
system.cpu.op_class::SimdFloatAlu                   0                       # Class of executed instruction
system.cpu.op_class::SimdFloatCmp                   0                       # Class of executed instruction
system.cpu.op_class::SimdFloatCvt                   0                       # Class of executed instruction
system.cpu.op_class::SimdFloatDiv                   0                       # Class of executed instruction
system.cpu.op_class::SimdFloatMisc                  0                       # Class of executed instruction
system.cpu.op_class::SimdFloatMult                  0                       # Class of executed instruction
system.cpu.op_class::SimdFloatMultAcc               0                       # Class of executed instruction
system.cpu.op_class::SimdFloatSqrt                  0                       # Class of executed instruction
system.cpu.op_class::MemRead                        0                       # Class of executed instruction
system.cpu.op_class::MemWrite                       0                       # Class of executed instruction
system.cpu.op_class::IprAccess                      0                       # Class of executed instruction
system.cpu.op_class::InstPrefetch                   0                       # Class of executed instruction
system.cpu.op_class::total                          0                       # Class of executed instruction
system.cpu.kern.inst.arm                            0                       # number of arm instructions executed
system.cpu.kern.inst.quiesce                        0                       # number of quiesce instructions executed
system.cpu.kern.inst.hwrei                       2781                       # number of hwrei instructions executed
system.cpu.kern.ipl_count::0                      635     49.15%     49.15% # number of times we switched to this ipl
system.cpu.kern.ipl_count::22                       1      0.08%     49.23% # number of times we switched to this ipl
system.cpu.kern.ipl_count::31                     656     50.77%    100.00% # number of times we switched to this ipl
system.cpu.kern.ipl_count::total                 1292                       # number of times we switched to this ipl
system.cpu.kern.ipl_good::0                       633     49.96%     49.96% # number of times we switched to this ipl from a different ipl
system.cpu.kern.ipl_good::22                        1      0.08%     50.04% # number of times we switched to this ipl from a different ipl
system.cpu.kern.ipl_good::31                      633     49.96%    100.00% # number of times we switched to this ipl from a different ipl
system.cpu.kern.ipl_good::total                  1267                       # number of times we switched to this ipl from a different ipl
system.cpu.kern.ipl_ticks::0                599693000     90.34%     90.34% # number of cycles we spent at this ipl
system.cpu.kern.ipl_ticks::22                 1178500      0.18%     90.52% # number of cycles we spent at this ipl
system.cpu.kern.ipl_ticks::31                62959000      9.48%    100.00% # number of cycles we spent at this ipl
system.cpu.kern.ipl_ticks::total            663830500                       # number of cycles we spent at this ipl
system.cpu.kern.ipl_used::0                  0.996850                       # fraction of swpipl calls that actually changed the ipl
system.cpu.kern.ipl_used::22                        1                       # fraction of swpipl calls that actually changed the ipl
system.cpu.kern.ipl_used::31                 0.964939                       # fraction of swpipl calls that actually changed the ipl
system.cpu.kern.ipl_used::total              0.980650                       # fraction of swpipl calls that actually changed the ipl
system.cpu.kern.syscall::2                          1      5.56%      5.56% # number of syscalls executed
system.cpu.kern.syscall::3                          2     11.11%     16.67% # number of syscalls executed
system.cpu.kern.syscall::6                          2     11.11%     27.78% # number of syscalls executed
system.cpu.kern.syscall::17                         1      5.56%     33.33% # number of syscalls executed
system.cpu.kern.syscall::19                         1      5.56%     38.89% # number of syscalls executed
system.cpu.kern.syscall::33                         1      5.56%     44.44% # number of syscalls executed
system.cpu.kern.syscall::45                         3     16.67%     61.11% # number of syscalls executed
system.cpu.kern.syscall::48                         1      5.56%     66.67% # number of syscalls executed
system.cpu.kern.syscall::59                         1      5.56%     72.22% # number of syscalls executed
system.cpu.kern.syscall::71                         4     22.22%     94.44% # number of syscalls executed
system.cpu.kern.syscall::74                         1      5.56%    100.00% # number of syscalls executed
system.cpu.kern.syscall::total                     18                       # number of syscalls executed
system.cpu.kern.callpal::swpctx                   118      8.10%      8.10% # number of callpals executed
system.cpu.kern.callpal::tbi                        6      0.41%      8.51% # number of callpals executed
system.cpu.kern.callpal::swpipl                  1107     75.98%     84.49% # number of callpals executed
system.cpu.kern.callpal::rdps                       3      0.21%     84.69% # number of callpals executed
system.cpu.kern.callpal::wrusp                      1      0.07%     84.76% # number of callpals executed
system.cpu.kern.callpal::rdusp                      1      0.07%     84.83% # number of callpals executed
system.cpu.kern.callpal::rti                      184     12.63%     97.46% # number of callpals executed
system.cpu.kern.callpal::callsys                   33      2.26%     99.73% # number of callpals executed
system.cpu.kern.callpal::imb                        4      0.27%    100.00% # number of callpals executed
system.cpu.kern.callpal::total                   1457                       # number of callpals executed
system.cpu.kern.mode_switch::kernel               302                       # number of protection mode switches
system.cpu.kern.mode_switch::user                 181                       # number of protection mode switches
system.cpu.kern.mode_switch::idle                   0                       # number of protection mode switches
system.cpu.kern.mode_good::kernel                 181                      
system.cpu.kern.mode_good::user                   181                      
system.cpu.kern.mode_good::idle                     0                      
system.cpu.kern.mode_switch_good::kernel     0.599338                       # fraction of useful protection mode switches
system.cpu.kern.mode_switch_good::user              1                       # fraction of useful protection mode switches
system.cpu.kern.mode_switch_good::idle            nan                       # fraction of useful protection mode switches
system.cpu.kern.mode_switch_good::total      0.749482                       # fraction of useful protection mode switches
system.cpu.kern.mode_ticks::kernel          433029000     65.23%     65.23% # number of ticks spent at the given mode
system.cpu.kern.mode_ticks::user            230794500     34.77%    100.00% # number of ticks spent at the given mode
system.cpu.kern.mode_ticks::idle                    0      0.00%    100.00% # number of ticks spent at the given mode
system.cpu.kern.swap_context                      118                       # number of times the context was actually changed
system.cpu.dcache.tags.replacements             18309                       # number of replacements
system.cpu.dcache.tags.tagsinuse                  512                       # Cycle average of tags in use
system.cpu.dcache.tags.total_refs              199634                       # Total number of references to valid blocks.
system.cpu.dcache.tags.sampled_refs             18309                       # Sample count of references to valid blocks.
system.cpu.dcache.tags.avg_refs             10.903599                       # Average number of references to valid blocks.
system.cpu.dcache.tags.warmup_cycle                 0                       # Cycle when the warmup percentage was hit.
system.cpu.dcache.tags.occ_blocks::cpu.data    26.017883                       # Average occupied blocks per requestor
system.cpu.dcache.tags.occ_blocks::switch_cpus.data   485.982117                       # Average occupied blocks per requestor
system.cpu.dcache.tags.occ_percent::cpu.data     0.050816                       # Average percentage of cache occupancy
system.cpu.dcache.tags.occ_percent::switch_cpus.data     0.949184                       # Average percentage of cache occupancy
system.cpu.dcache.tags.occ_percent::total            1                       # Average percentage of cache occupancy
system.cpu.dcache.tags.occ_task_id_blocks::1024          512                       # Occupied blocks per task id
system.cpu.dcache.tags.age_task_id_blocks_1024::0          340                       # Occupied blocks per task id
system.cpu.dcache.tags.age_task_id_blocks_1024::1          171                       # Occupied blocks per task id
system.cpu.dcache.tags.age_task_id_blocks_1024::2            1                       # Occupied blocks per task id
system.cpu.dcache.tags.occ_task_id_percent::1024            1                       # Percentage of cache occupancy per task id
system.cpu.dcache.tags.tag_accesses           1181545                       # Number of tag accesses
system.cpu.dcache.tags.data_accesses          1181545                       # Number of data accesses
system.cpu.dcache.ReadReq_hits::switch_cpus.data       133061                       # number of ReadReq hits
system.cpu.dcache.ReadReq_hits::total          133061                       # number of ReadReq hits
system.cpu.dcache.WriteReq_hits::switch_cpus.data        59076                       # number of WriteReq hits
system.cpu.dcache.WriteReq_hits::total          59076                       # number of WriteReq hits
system.cpu.dcache.LoadLockedReq_hits::switch_cpus.data         2220                       # number of LoadLockedReq hits
system.cpu.dcache.LoadLockedReq_hits::total         2220                       # number of LoadLockedReq hits
system.cpu.dcache.StoreCondReq_hits::switch_cpus.data         2379                       # number of StoreCondReq hits
system.cpu.dcache.StoreCondReq_hits::total         2379                       # number of StoreCondReq hits
system.cpu.dcache.demand_hits::switch_cpus.data       192137                       # number of demand (read+write) hits
system.cpu.dcache.demand_hits::total           192137                       # number of demand (read+write) hits
system.cpu.dcache.overall_hits::switch_cpus.data       192137                       # number of overall hits
system.cpu.dcache.overall_hits::total          192137                       # number of overall hits
system.cpu.dcache.ReadReq_misses::switch_cpus.data        26506                       # number of ReadReq misses
system.cpu.dcache.ReadReq_misses::total         26506                       # number of ReadReq misses
system.cpu.dcache.WriteReq_misses::switch_cpus.data        67170                       # number of WriteReq misses
system.cpu.dcache.WriteReq_misses::total        67170                       # number of WriteReq misses
system.cpu.dcache.LoadLockedReq_misses::switch_cpus.data          397                       # number of LoadLockedReq misses
system.cpu.dcache.LoadLockedReq_misses::total          397                       # number of LoadLockedReq misses
system.cpu.dcache.demand_misses::switch_cpus.data        93676                       # number of demand (read+write) misses
system.cpu.dcache.demand_misses::total          93676                       # number of demand (read+write) misses
system.cpu.dcache.overall_misses::switch_cpus.data        93676                       # number of overall misses
system.cpu.dcache.overall_misses::total         93676                       # number of overall misses
system.cpu.dcache.ReadReq_miss_latency::switch_cpus.data    679676992                       # number of ReadReq miss cycles
system.cpu.dcache.ReadReq_miss_latency::total    679676992                       # number of ReadReq miss cycles
system.cpu.dcache.WriteReq_miss_latency::switch_cpus.data   1823965003                       # number of WriteReq miss cycles
system.cpu.dcache.WriteReq_miss_latency::total   1823965003                       # number of WriteReq miss cycles
system.cpu.dcache.LoadLockedReq_miss_latency::switch_cpus.data      7158500                       # number of LoadLockedReq miss cycles
system.cpu.dcache.LoadLockedReq_miss_latency::total      7158500                       # number of LoadLockedReq miss cycles
system.cpu.dcache.demand_miss_latency::switch_cpus.data   2503641995                       # number of demand (read+write) miss cycles
system.cpu.dcache.demand_miss_latency::total   2503641995                       # number of demand (read+write) miss cycles
system.cpu.dcache.overall_miss_latency::switch_cpus.data   2503641995                       # number of overall miss cycles
system.cpu.dcache.overall_miss_latency::total   2503641995                       # number of overall miss cycles
system.cpu.dcache.ReadReq_accesses::switch_cpus.data       159567                       # number of ReadReq accesses(hits+misses)
system.cpu.dcache.ReadReq_accesses::total       159567                       # number of ReadReq accesses(hits+misses)
system.cpu.dcache.WriteReq_accesses::switch_cpus.data       126246                       # number of WriteReq accesses(hits+misses)
system.cpu.dcache.WriteReq_accesses::total       126246                       # number of WriteReq accesses(hits+misses)
system.cpu.dcache.LoadLockedReq_accesses::switch_cpus.data         2617                       # number of LoadLockedReq accesses(hits+misses)
system.cpu.dcache.LoadLockedReq_accesses::total         2617                       # number of LoadLockedReq accesses(hits+misses)
system.cpu.dcache.StoreCondReq_accesses::switch_cpus.data         2379                       # number of StoreCondReq accesses(hits+misses)
system.cpu.dcache.StoreCondReq_accesses::total         2379                       # number of StoreCondReq accesses(hits+misses)
system.cpu.dcache.demand_accesses::switch_cpus.data       285813                       # number of demand (read+write) accesses
system.cpu.dcache.demand_accesses::total       285813                       # number of demand (read+write) accesses
system.cpu.dcache.overall_accesses::switch_cpus.data       285813                       # number of overall (read+write) accesses
system.cpu.dcache.overall_accesses::total       285813                       # number of overall (read+write) accesses
system.cpu.dcache.ReadReq_miss_rate::switch_cpus.data     0.166112                       # miss rate for ReadReq accesses
system.cpu.dcache.ReadReq_miss_rate::total     0.166112                       # miss rate for ReadReq accesses
system.cpu.dcache.WriteReq_miss_rate::switch_cpus.data     0.532056                       # miss rate for WriteReq accesses
system.cpu.dcache.WriteReq_miss_rate::total     0.532056                       # miss rate for WriteReq accesses
system.cpu.dcache.LoadLockedReq_miss_rate::switch_cpus.data     0.151700                       # miss rate for LoadLockedReq accesses
system.cpu.dcache.LoadLockedReq_miss_rate::total     0.151700                       # miss rate for LoadLockedReq accesses
system.cpu.dcache.demand_miss_rate::switch_cpus.data     0.327753                       # miss rate for demand accesses
system.cpu.dcache.demand_miss_rate::total     0.327753                       # miss rate for demand accesses
system.cpu.dcache.overall_miss_rate::switch_cpus.data     0.327753                       # miss rate for overall accesses
system.cpu.dcache.overall_miss_rate::total     0.327753                       # miss rate for overall accesses
system.cpu.dcache.ReadReq_avg_miss_latency::switch_cpus.data 25642.382555                       # average ReadReq miss latency
system.cpu.dcache.ReadReq_avg_miss_latency::total 25642.382555                       # average ReadReq miss latency
system.cpu.dcache.WriteReq_avg_miss_latency::switch_cpus.data 27154.458880                       # average WriteReq miss latency
system.cpu.dcache.WriteReq_avg_miss_latency::total 27154.458880                       # average WriteReq miss latency
system.cpu.dcache.LoadLockedReq_avg_miss_latency::switch_cpus.data 18031.486146                       # average LoadLockedReq miss latency
system.cpu.dcache.LoadLockedReq_avg_miss_latency::total 18031.486146                       # average LoadLockedReq miss latency
system.cpu.dcache.demand_avg_miss_latency::switch_cpus.data 26726.610818                       # average overall miss latency
system.cpu.dcache.demand_avg_miss_latency::total 26726.610818                       # average overall miss latency
system.cpu.dcache.overall_avg_miss_latency::switch_cpus.data 26726.610818                       # average overall miss latency
system.cpu.dcache.overall_avg_miss_latency::total 26726.610818                       # average overall miss latency
system.cpu.dcache.blocked_cycles::no_mshrs        76147                       # number of cycles access was blocked
system.cpu.dcache.blocked_cycles::no_targets            8                       # number of cycles access was blocked
system.cpu.dcache.blocked::no_mshrs              4620                       # number of cycles access was blocked
system.cpu.dcache.blocked::no_targets               1                       # number of cycles access was blocked
system.cpu.dcache.avg_blocked_cycles::no_mshrs    16.482035                       # average number of cycles each access was blocked
system.cpu.dcache.avg_blocked_cycles::no_targets            8                       # average number of cycles each access was blocked
system.cpu.dcache.fast_writes                       0                       # number of fast writes performed
system.cpu.dcache.cache_copies                      0                       # number of cache copies performed
system.cpu.dcache.writebacks::writebacks        13032                       # number of writebacks
system.cpu.dcache.writebacks::total             13032                       # number of writebacks
system.cpu.dcache.ReadReq_mshr_hits::switch_cpus.data        17517                       # number of ReadReq MSHR hits
system.cpu.dcache.ReadReq_mshr_hits::total        17517                       # number of ReadReq MSHR hits
system.cpu.dcache.WriteReq_mshr_hits::switch_cpus.data        58071                       # number of WriteReq MSHR hits
system.cpu.dcache.WriteReq_mshr_hits::total        58071                       # number of WriteReq MSHR hits
system.cpu.dcache.LoadLockedReq_mshr_hits::switch_cpus.data          174                       # number of LoadLockedReq MSHR hits
system.cpu.dcache.LoadLockedReq_mshr_hits::total          174                       # number of LoadLockedReq MSHR hits
system.cpu.dcache.demand_mshr_hits::switch_cpus.data        75588                       # number of demand (read+write) MSHR hits
system.cpu.dcache.demand_mshr_hits::total        75588                       # number of demand (read+write) MSHR hits
system.cpu.dcache.overall_mshr_hits::switch_cpus.data        75588                       # number of overall MSHR hits
system.cpu.dcache.overall_mshr_hits::total        75588                       # number of overall MSHR hits
system.cpu.dcache.ReadReq_mshr_misses::switch_cpus.data         8989                       # number of ReadReq MSHR misses
system.cpu.dcache.ReadReq_mshr_misses::total         8989                       # number of ReadReq MSHR misses
system.cpu.dcache.WriteReq_mshr_misses::switch_cpus.data         9099                       # number of WriteReq MSHR misses
system.cpu.dcache.WriteReq_mshr_misses::total         9099                       # number of WriteReq MSHR misses
system.cpu.dcache.LoadLockedReq_mshr_misses::switch_cpus.data          223                       # number of LoadLockedReq MSHR misses
system.cpu.dcache.LoadLockedReq_mshr_misses::total          223                       # number of LoadLockedReq MSHR misses
system.cpu.dcache.demand_mshr_misses::switch_cpus.data        18088                       # number of demand (read+write) MSHR misses
system.cpu.dcache.demand_mshr_misses::total        18088                       # number of demand (read+write) MSHR misses
system.cpu.dcache.overall_mshr_misses::switch_cpus.data        18088                       # number of overall MSHR misses
system.cpu.dcache.overall_mshr_misses::total        18088                       # number of overall MSHR misses
system.cpu.dcache.WriteReq_mshr_uncacheable::switch_cpus.data            1                       # number of WriteReq MSHR uncacheable
system.cpu.dcache.WriteReq_mshr_uncacheable::total            1                       # number of WriteReq MSHR uncacheable
system.cpu.dcache.overall_mshr_uncacheable_misses::switch_cpus.data            1                       # number of overall MSHR uncacheable misses
system.cpu.dcache.overall_mshr_uncacheable_misses::total            1                       # number of overall MSHR uncacheable misses
system.cpu.dcache.ReadReq_mshr_miss_latency::switch_cpus.data    220117005                       # number of ReadReq MSHR miss cycles
system.cpu.dcache.ReadReq_mshr_miss_latency::total    220117005                       # number of ReadReq MSHR miss cycles
system.cpu.dcache.WriteReq_mshr_miss_latency::switch_cpus.data    251608299                       # number of WriteReq MSHR miss cycles
system.cpu.dcache.WriteReq_mshr_miss_latency::total    251608299                       # number of WriteReq MSHR miss cycles
system.cpu.dcache.LoadLockedReq_mshr_miss_latency::switch_cpus.data      4260000                       # number of LoadLockedReq MSHR miss cycles
system.cpu.dcache.LoadLockedReq_mshr_miss_latency::total      4260000                       # number of LoadLockedReq MSHR miss cycles
system.cpu.dcache.demand_mshr_miss_latency::switch_cpus.data    471725304                       # number of demand (read+write) MSHR miss cycles
system.cpu.dcache.demand_mshr_miss_latency::total    471725304                       # number of demand (read+write) MSHR miss cycles
system.cpu.dcache.overall_mshr_miss_latency::switch_cpus.data    471725304                       # number of overall MSHR miss cycles
system.cpu.dcache.overall_mshr_miss_latency::total    471725304                       # number of overall MSHR miss cycles
system.cpu.dcache.WriteReq_mshr_uncacheable_latency::switch_cpus.data       227500                       # number of WriteReq MSHR uncacheable cycles
system.cpu.dcache.WriteReq_mshr_uncacheable_latency::total       227500                       # number of WriteReq MSHR uncacheable cycles
system.cpu.dcache.overall_mshr_uncacheable_latency::switch_cpus.data       227500                       # number of overall MSHR uncacheable cycles
system.cpu.dcache.overall_mshr_uncacheable_latency::total       227500                       # number of overall MSHR uncacheable cycles
system.cpu.dcache.ReadReq_mshr_miss_rate::switch_cpus.data     0.056334                       # mshr miss rate for ReadReq accesses
system.cpu.dcache.ReadReq_mshr_miss_rate::total     0.056334                       # mshr miss rate for ReadReq accesses
system.cpu.dcache.WriteReq_mshr_miss_rate::switch_cpus.data     0.072074                       # mshr miss rate for WriteReq accesses
system.cpu.dcache.WriteReq_mshr_miss_rate::total     0.072074                       # mshr miss rate for WriteReq accesses
system.cpu.dcache.LoadLockedReq_mshr_miss_rate::switch_cpus.data     0.085212                       # mshr miss rate for LoadLockedReq accesses
system.cpu.dcache.LoadLockedReq_mshr_miss_rate::total     0.085212                       # mshr miss rate for LoadLockedReq accesses
system.cpu.dcache.demand_mshr_miss_rate::switch_cpus.data     0.063286                       # mshr miss rate for demand accesses
system.cpu.dcache.demand_mshr_miss_rate::total     0.063286                       # mshr miss rate for demand accesses
system.cpu.dcache.overall_mshr_miss_rate::switch_cpus.data     0.063286                       # mshr miss rate for overall accesses
system.cpu.dcache.overall_mshr_miss_rate::total     0.063286                       # mshr miss rate for overall accesses
system.cpu.dcache.ReadReq_avg_mshr_miss_latency::switch_cpus.data 24487.374013                       # average ReadReq mshr miss latency
system.cpu.dcache.ReadReq_avg_mshr_miss_latency::total 24487.374013                       # average ReadReq mshr miss latency
system.cpu.dcache.WriteReq_avg_mshr_miss_latency::switch_cpus.data 27652.302341                       # average WriteReq mshr miss latency
system.cpu.dcache.WriteReq_avg_mshr_miss_latency::total 27652.302341                       # average WriteReq mshr miss latency
system.cpu.dcache.LoadLockedReq_avg_mshr_miss_latency::switch_cpus.data 19103.139013                       # average LoadLockedReq mshr miss latency
system.cpu.dcache.LoadLockedReq_avg_mshr_miss_latency::total 19103.139013                       # average LoadLockedReq mshr miss latency
system.cpu.dcache.demand_avg_mshr_miss_latency::switch_cpus.data 26079.461743                       # average overall mshr miss latency
system.cpu.dcache.demand_avg_mshr_miss_latency::total 26079.461743                       # average overall mshr miss latency
system.cpu.dcache.overall_avg_mshr_miss_latency::switch_cpus.data 26079.461743                       # average overall mshr miss latency
system.cpu.dcache.overall_avg_mshr_miss_latency::total 26079.461743                       # average overall mshr miss latency
system.cpu.dcache.WriteReq_avg_mshr_uncacheable_latency::switch_cpus.data       227500                       # average WriteReq mshr uncacheable latency
system.cpu.dcache.WriteReq_avg_mshr_uncacheable_latency::total       227500                       # average WriteReq mshr uncacheable latency
system.cpu.dcache.overall_avg_mshr_uncacheable_latency::switch_cpus.data       227500                       # average overall mshr uncacheable latency
system.cpu.dcache.overall_avg_mshr_uncacheable_latency::total       227500                       # average overall mshr uncacheable latency
system.cpu.dcache.no_allocate_misses                0                       # Number of misses that were no-allocate
system.cpu.icache.tags.replacements             10397                       # number of replacements
system.cpu.icache.tags.tagsinuse           511.870899                       # Cycle average of tags in use
system.cpu.icache.tags.total_refs              362958                       # Total number of references to valid blocks.
system.cpu.icache.tags.sampled_refs             10397                       # Sample count of references to valid blocks.
system.cpu.icache.tags.avg_refs             34.909878                       # Average number of references to valid blocks.
system.cpu.icache.tags.warmup_cycle                 0                       # Cycle when the warmup percentage was hit.
system.cpu.icache.tags.occ_blocks::cpu.inst    22.836718                       # Average occupied blocks per requestor
system.cpu.icache.tags.occ_blocks::switch_cpus.inst   489.034182                       # Average occupied blocks per requestor
system.cpu.icache.tags.occ_percent::cpu.inst     0.044603                       # Average percentage of cache occupancy
system.cpu.icache.tags.occ_percent::switch_cpus.inst     0.955145                       # Average percentage of cache occupancy
system.cpu.icache.tags.occ_percent::total     0.999748                       # Average percentage of cache occupancy
system.cpu.icache.tags.occ_task_id_blocks::1024          511                       # Occupied blocks per task id
system.cpu.icache.tags.age_task_id_blocks_1024::0           64                       # Occupied blocks per task id
system.cpu.icache.tags.age_task_id_blocks_1024::1          121                       # Occupied blocks per task id
system.cpu.icache.tags.age_task_id_blocks_1024::2          326                       # Occupied blocks per task id
system.cpu.icache.tags.occ_task_id_percent::1024     0.998047                       # Percentage of cache occupancy per task id
system.cpu.icache.tags.tag_accesses            333090                       # Number of tag accesses
system.cpu.icache.tags.data_accesses           333090                       # Number of data accesses
system.cpu.icache.ReadReq_hits::switch_cpus.inst       149386                       # number of ReadReq hits
system.cpu.icache.ReadReq_hits::total          149386                       # number of ReadReq hits
system.cpu.icache.demand_hits::switch_cpus.inst       149386                       # number of demand (read+write) hits
system.cpu.icache.demand_hits::total           149386                       # number of demand (read+write) hits
system.cpu.icache.overall_hits::switch_cpus.inst       149386                       # number of overall hits
system.cpu.icache.overall_hits::total          149386                       # number of overall hits
system.cpu.icache.ReadReq_misses::switch_cpus.inst        11960                       # number of ReadReq misses
system.cpu.icache.ReadReq_misses::total         11960                       # number of ReadReq misses
system.cpu.icache.demand_misses::switch_cpus.inst        11960                       # number of demand (read+write) misses
system.cpu.icache.demand_misses::total          11960                       # number of demand (read+write) misses
system.cpu.icache.overall_misses::switch_cpus.inst        11960                       # number of overall misses
system.cpu.icache.overall_misses::total         11960                       # number of overall misses
system.cpu.icache.ReadReq_miss_latency::switch_cpus.inst    301969211                       # number of ReadReq miss cycles
system.cpu.icache.ReadReq_miss_latency::total    301969211                       # number of ReadReq miss cycles
system.cpu.icache.demand_miss_latency::switch_cpus.inst    301969211                       # number of demand (read+write) miss cycles
system.cpu.icache.demand_miss_latency::total    301969211                       # number of demand (read+write) miss cycles
system.cpu.icache.overall_miss_latency::switch_cpus.inst    301969211                       # number of overall miss cycles
system.cpu.icache.overall_miss_latency::total    301969211                       # number of overall miss cycles
system.cpu.icache.ReadReq_accesses::switch_cpus.inst       161346                       # number of ReadReq accesses(hits+misses)
system.cpu.icache.ReadReq_accesses::total       161346                       # number of ReadReq accesses(hits+misses)
system.cpu.icache.demand_accesses::switch_cpus.inst       161346                       # number of demand (read+write) accesses
system.cpu.icache.demand_accesses::total       161346                       # number of demand (read+write) accesses
system.cpu.icache.overall_accesses::switch_cpus.inst       161346                       # number of overall (read+write) accesses
system.cpu.icache.overall_accesses::total       161346                       # number of overall (read+write) accesses
system.cpu.icache.ReadReq_miss_rate::switch_cpus.inst     0.074126                       # miss rate for ReadReq accesses
system.cpu.icache.ReadReq_miss_rate::total     0.074126                       # miss rate for ReadReq accesses
system.cpu.icache.demand_miss_rate::switch_cpus.inst     0.074126                       # miss rate for demand accesses
system.cpu.icache.demand_miss_rate::total     0.074126                       # miss rate for demand accesses
system.cpu.icache.overall_miss_rate::switch_cpus.inst     0.074126                       # miss rate for overall accesses
system.cpu.icache.overall_miss_rate::total     0.074126                       # miss rate for overall accesses
system.cpu.icache.ReadReq_avg_miss_latency::switch_cpus.inst 25248.261789                       # average ReadReq miss latency
system.cpu.icache.ReadReq_avg_miss_latency::total 25248.261789                       # average ReadReq miss latency
system.cpu.icache.demand_avg_miss_latency::switch_cpus.inst 25248.261789                       # average overall miss latency
system.cpu.icache.demand_avg_miss_latency::total 25248.261789                       # average overall miss latency
system.cpu.icache.overall_avg_miss_latency::switch_cpus.inst 25248.261789                       # average overall miss latency
system.cpu.icache.overall_avg_miss_latency::total 25248.261789                       # average overall miss latency
system.cpu.icache.blocked_cycles::no_mshrs         2227                       # number of cycles access was blocked
system.cpu.icache.blocked_cycles::no_targets            0                       # number of cycles access was blocked
system.cpu.icache.blocked::no_mshrs                78                       # number of cycles access was blocked
system.cpu.icache.blocked::no_targets               0                       # number of cycles access was blocked
system.cpu.icache.avg_blocked_cycles::no_mshrs    28.551282                       # average number of cycles each access was blocked
system.cpu.icache.avg_blocked_cycles::no_targets          nan                       # average number of cycles each access was blocked
system.cpu.icache.fast_writes                       0                       # number of fast writes performed
system.cpu.icache.cache_copies                      0                       # number of cache copies performed
system.cpu.icache.ReadReq_mshr_hits::switch_cpus.inst         1562                       # number of ReadReq MSHR hits
system.cpu.icache.ReadReq_mshr_hits::total         1562                       # number of ReadReq MSHR hits
system.cpu.icache.demand_mshr_hits::switch_cpus.inst         1562                       # number of demand (read+write) MSHR hits
system.cpu.icache.demand_mshr_hits::total         1562                       # number of demand (read+write) MSHR hits
system.cpu.icache.overall_mshr_hits::switch_cpus.inst         1562                       # number of overall MSHR hits
system.cpu.icache.overall_mshr_hits::total         1562                       # number of overall MSHR hits
system.cpu.icache.ReadReq_mshr_misses::switch_cpus.inst        10398                       # number of ReadReq MSHR misses
system.cpu.icache.ReadReq_mshr_misses::total        10398                       # number of ReadReq MSHR misses
system.cpu.icache.demand_mshr_misses::switch_cpus.inst        10398                       # number of demand (read+write) MSHR misses
system.cpu.icache.demand_mshr_misses::total        10398                       # number of demand (read+write) MSHR misses
system.cpu.icache.overall_mshr_misses::switch_cpus.inst        10398                       # number of overall MSHR misses
system.cpu.icache.overall_mshr_misses::total        10398                       # number of overall MSHR misses
system.cpu.icache.ReadReq_mshr_miss_latency::switch_cpus.inst    243534271                       # number of ReadReq MSHR miss cycles
system.cpu.icache.ReadReq_mshr_miss_latency::total    243534271                       # number of ReadReq MSHR miss cycles
system.cpu.icache.demand_mshr_miss_latency::switch_cpus.inst    243534271                       # number of demand (read+write) MSHR miss cycles
system.cpu.icache.demand_mshr_miss_latency::total    243534271                       # number of demand (read+write) MSHR miss cycles
system.cpu.icache.overall_mshr_miss_latency::switch_cpus.inst    243534271                       # number of overall MSHR miss cycles
system.cpu.icache.overall_mshr_miss_latency::total    243534271                       # number of overall MSHR miss cycles
system.cpu.icache.ReadReq_mshr_miss_rate::switch_cpus.inst     0.064445                       # mshr miss rate for ReadReq accesses
system.cpu.icache.ReadReq_mshr_miss_rate::total     0.064445                       # mshr miss rate for ReadReq accesses
system.cpu.icache.demand_mshr_miss_rate::switch_cpus.inst     0.064445                       # mshr miss rate for demand accesses
system.cpu.icache.demand_mshr_miss_rate::total     0.064445                       # mshr miss rate for demand accesses
system.cpu.icache.overall_mshr_miss_rate::switch_cpus.inst     0.064445                       # mshr miss rate for overall accesses
system.cpu.icache.overall_mshr_miss_rate::total     0.064445                       # mshr miss rate for overall accesses
[...]
system.switch_cpus.iew.wb_fanout             0.731079                       # average fanout of values written-back
system.switch_cpus.iew.wb_penalized_rate            0                       # fraction of instructions written-back that wrote to 'other' IQ
system.switch_cpus.commit.commitSquashedInsts      1965766                       # The number of squashed insts skipped by commit
system.switch_cpus.commit.commitNonSpecStalls       234797                       # The number of times commit has been forced to stall to communicate backwards
system.switch_cpus.commit.branchMispredicts        86173                       # The number of times a branch was mispredicted
system.switch_cpus.commit.committed_per_cycle::samples     71739759                       # Number of insts commited each cycle
system.switch_cpus.commit.committed_per_cycle::mean     1.572779                       # Number of insts commited each cycle
system.switch_cpus.commit.committed_per_cycle::stdev     2.598916                       # Number of insts commited each cycle
system.switch_cpus.commit.committed_per_cycle::underflows            0      0.00%      0.00% # Number of insts commited each cycle
system.switch_cpus.commit.committed_per_cycle::0     42044383     58.61%     58.61% # Number of insts commited each cycle
system.switch_cpus.commit.committed_per_cycle::1      9972762     13.90%     72.51% # Number of insts commited each cycle
system.switch_cpus.commit.committed_per_cycle::2      3516301      4.90%     77.41% # Number of insts commited each cycle
system.switch_cpus.commit.committed_per_cycle::3      3729142      5.20%     82.61% # Number of insts commited each cycle
system.switch_cpus.commit.committed_per_cycle::4      2269811      3.16%     85.77% # Number of insts commited each cycle
system.switch_cpus.commit.committed_per_cycle::5       698156      0.97%     86.74% # Number of insts commited each cycle
system.switch_cpus.commit.committed_per_cycle::6      1069740      1.49%     88.24% # Number of insts commited each cycle
system.switch_cpus.commit.committed_per_cycle::7      1866208      2.60%     90.84% # Number of insts commited each cycle
system.switch_cpus.commit.committed_per_cycle::8      6573256      9.16%    100.00% # Number of insts commited each cycle
system.switch_cpus.commit.committed_per_cycle::overflows            0      0.00%    100.00% # Number of insts commited each cycle
system.switch_cpus.commit.committed_per_cycle::min_value            0                       # Number of insts commited each cycle
system.switch_cpus.commit.committed_per_cycle::max_value            8                       # Number of insts commited each cycle
system.switch_cpus.commit.committed_per_cycle::total     71739759                       # Number of insts commited each cycle
system.switch_cpus.commit.committedInsts    112830758                       # Number of instructions committed
system.switch_cpus.commit.committedOps      112830758                       # Number of ops (including micro ops) committed
system.switch_cpus.commit.swp_count                 0                       # Number of s/w prefetches committed
system.switch_cpus.commit.refs               37833926                       # Number of memory references committed
system.switch_cpus.commit.loads              23335679                       # Number of loads committed
system.switch_cpus.commit.membars              115741                       # Number of memory barriers committed
system.switch_cpus.commit.branches           19707593                       # Number of branches committed
system.switch_cpus.commit.fp_insts               5048                       # Number of committed floating point instructions.
system.switch_cpus.commit.int_insts         100295467                       # Number of committed integer instructions.
system.switch_cpus.commit.function_calls      3869933                       # Number of function calls committed.
system.switch_cpus.commit.op_class_0::No_OpClass     11279890     10.00%     10.00% # Class of committed instruction
system.switch_cpus.commit.op_class_0::IntAlu     63451747     56.24%     66.23% # Class of committed instruction
system.switch_cpus.commit.op_class_0::IntMult        13809      0.01%     66.25% # Class of committed instruction
system.switch_cpus.commit.op_class_0::IntDiv            0      0.00%     66.25% # Class of committed instruction
system.switch_cpus.commit.op_class_0::FloatAdd         1683      0.00%     66.25% # Class of committed instruction
system.switch_cpus.commit.op_class_0::FloatCmp            1      0.00%     66.25% # Class of committed instruction
system.switch_cpus.commit.op_class_0::FloatCvt            2      0.00%     66.25% # Class of committed instruction
system.switch_cpus.commit.op_class_0::FloatMult            1      0.00%     66.25% # Class of committed instruction
system.switch_cpus.commit.op_class_0::FloatDiv          245      0.00%     66.25% # Class of committed instruction
system.switch_cpus.commit.op_class_0::FloatSqrt            0      0.00%     66.25% # Class of committed instruction
system.switch_cpus.commit.op_class_0::SimdAdd            0      0.00%     66.25% # Class of committed instruction
system.switch_cpus.commit.op_class_0::SimdAddAcc            0      0.00%     66.25% # Class of committed instruction
system.switch_cpus.commit.op_class_0::SimdAlu            0      0.00%     66.25% # Class of committed instruction
system.switch_cpus.commit.op_class_0::SimdCmp            0      0.00%     66.25% # Class of committed instruction
system.switch_cpus.commit.op_class_0::SimdCvt            0      0.00%     66.25% # Class of committed instruction
system.switch_cpus.commit.op_class_0::SimdMisc            0      0.00%     66.25% # Class of committed instruction
system.switch_cpus.commit.op_class_0::SimdMult            0      0.00%     66.25% # Class of committed instruction
system.switch_cpus.commit.op_class_0::SimdMultAcc            0      0.00%     66.25% # Class of committed instruction
system.switch_cpus.commit.op_class_0::SimdShift            0      0.00%     66.25% # Class of committed instruction
system.switch_cpus.commit.op_class_0::SimdShiftAcc            0      0.00%     66.25% # Class of committed instruction
system.switch_cpus.commit.op_class_0::SimdSqrt            0      0.00%     66.25% # Class of committed instruction
system.switch_cpus.commit.op_class_0::SimdFloatAdd            0      0.00%     66.25% # Class of committed instruction
system.switch_cpus.commit.op_class_0::SimdFloatAlu            0      0.00%     66.25% # Class of committed instruction
system.switch_cpus.commit.op_class_0::SimdFloatCmp            0      0.00%     66.25% # Class of committed instruction
system.switch_cpus.commit.op_class_0::SimdFloatCvt            0      0.00%     66.25% # Class of committed instruction
system.switch_cpus.commit.op_class_0::SimdFloatDiv            0      0.00%     66.25% # Class of committed instruction
system.switch_cpus.commit.op_class_0::SimdFloatMisc            0      0.00%     66.25% # Class of committed instruction
system.switch_cpus.commit.op_class_0::SimdFloatMult            0      0.00%     66.25% # Class of committed instruction
system.switch_cpus.commit.op_class_0::SimdFloatMultAcc            0      0.00%     66.25% # Class of committed instruction
system.switch_cpus.commit.op_class_0::SimdFloatSqrt            0      0.00%     66.25% # Class of committed instruction
system.switch_cpus.commit.op_class_0::MemRead     23451420     20.78%     87.03% # Class of committed instruction
system.switch_cpus.commit.op_class_0::MemWrite     14499049     12.85%     99.88% # Class of committed instruction
system.switch_cpus.commit.op_class_0::IprAccess       132911      0.12%    100.00% # Class of committed instruction
system.switch_cpus.commit.op_class_0::InstPrefetch            0      0.00%    100.00% # Class of committed instruction
system.switch_cpus.commit.op_class_0::total    112830758                       # Class of committed instruction
system.switch_cpus.commit.bw_lim_events       6573256                       # number cycles where commit BW limit reached
system.switch_cpus.rob.rob_reads            179887405                       # The number of ROB reads
system.switch_cpus.rob.rob_writes           229907246                       # The number of ROB writes
system.switch_cpus.timesIdled                   39906                       # Number of times that the entire CPU went into an idle state and unscheduled itself
system.switch_cpus.idleCycles                 1085433                       # Total number of cycles that the CPU has spent unscheduled due to idling
system.switch_cpus.quiesceCycles              1378733                       # Total number of cycles that CPU has spent quiesced or waiting for an interrupt
system.switch_cpus.committedInsts           101551360                       # Number of Instructions Simulated
system.switch_cpus.committedOps             101551360                       # Number of Ops (including micro ops) Simulated
system.switch_cpus.cpi                       0.720215                       # CPI: Cycles Per Instruction
system.switch_cpus.cpi_total                 0.720215                       # CPI: Total CPI of All Threads
system.switch_cpus.ipc                       1.388475                       # IPC: Instructions Per Cycle
system.switch_cpus.ipc_total                 1.388475                       # IPC: Total IPC of All Threads
system.switch_cpus.int_regfile_reads        135230977                       # number of integer regfile reads
system.switch_cpus.int_regfile_writes        71840138                       # number of integer regfile writes
system.switch_cpus.fp_regfile_reads              3219                       # number of floating regfile reads
system.switch_cpus.fp_regfile_writes             2914                       # number of floating regfile writes
system.switch_cpus.misc_regfile_reads          333870                       # number of misc regfile reads
system.switch_cpus.misc_regfile_writes         261632                       # number of misc regfile writes
system.tol2bus.trans_dist::ReadReq             418969                       # Transaction distribution
system.tol2bus.trans_dist::ReadResp            418965                       # Transaction distribution
system.tol2bus.trans_dist::WriteReq               315                       # Transaction distribution
system.tol2bus.trans_dist::WriteResp              315                       # Transaction distribution
system.tol2bus.trans_dist::Writeback           317439                       # Transaction distribution
system.tol2bus.trans_dist::WriteInvalidateReq         1351                       # Transaction distribution
system.tol2bus.trans_dist::UpgradeReq              16                       # Transaction distribution
system.tol2bus.trans_dist::UpgradeResp             16                       # Transaction distribution
system.tol2bus.trans_dist::ReadExReq            40473                       # Transaction distribution
system.tol2bus.trans_dist::ReadExResp           40473                       # Transaction distribution
system.tol2bus.trans_dist::BadAddressError            4                       # Transaction distribution
system.tol2bus.pkt_count_system.cpu.icache.mem_side::system.l2.cpu_side       142035                       # Packet count per connected master and slave (bytes)
system.tol2bus.pkt_count_system.cpu.dcache.mem_side::system.l2.cpu_side      1094924                       # Packet count per connected master and slave (bytes)
system.tol2bus.pkt_count::total               1236959                       # Packet count per connected master and slave (bytes)
system.tol2bus.pkt_size_system.cpu.icache.mem_side::system.l2.cpu_side      4544512                       # Cumulative packet size per connected master and slave (bytes)
system.tol2bus.pkt_size_system.cpu.dcache.mem_side::system.l2.cpu_side     45141112                       # Cumulative packet size per connected master and slave (bytes)
system.tol2bus.pkt_size::total               49685624                       # Cumulative packet size per connected master and slave (bytes)
system.tol2bus.snoops                            1382                       # Total snoops (count)
system.tol2bus.snoop_fanout::samples           778563                       # Request fanout histogram
system.tol2bus.snoop_fanout::mean            1.001743                       # Request fanout histogram
system.tol2bus.snoop_fanout::stdev           0.041712                       # Request fanout histogram
system.tol2bus.snoop_fanout::underflows             0      0.00%      0.00% # Request fanout histogram
system.tol2bus.snoop_fanout::0                      0      0.00%      0.00% # Request fanout histogram
system.tol2bus.snoop_fanout::1                 777206     99.83%     99.83% # Request fanout histogram
system.tol2bus.snoop_fanout::2                   1357      0.17%    100.00% # Request fanout histogram
system.tol2bus.snoop_fanout::overflows              0      0.00%    100.00% # Request fanout histogram
system.tol2bus.snoop_fanout::min_value              1                       # Request fanout histogram
system.tol2bus.snoop_fanout::max_value              2                       # Request fanout histogram
system.tol2bus.snoop_fanout::total             778563                       # Request fanout histogram
system.tol2bus.reqLayer0.occupancy          706199500                       # Layer occupancy (ticks)
system.tol2bus.reqLayer0.utilization              1.9                       # Layer utilization (%)
system.tol2bus.snoopLayer0.occupancy             7500                       # Layer occupancy (ticks)
system.tol2bus.snoopLayer0.utilization            0.0                       # Layer utilization (%)
system.tol2bus.respLayer0.occupancy         108474275                       # Layer occupancy (ticks)
system.tol2bus.respLayer0.utilization             0.3                       # Layer utilization (%)
system.tol2bus.respLayer1.occupancy         638692003                       # Layer occupancy (ticks)
system.tol2bus.respLayer1.utilization             1.7                       # Layer utilization (%)
system.tsunami.ethernet.descDMAReads                0                       # Number of descriptors the device read w/ DMA
system.tsunami.ethernet.descDMAWrites               0                       # Number of descriptors the device wrote w/ DMA
system.tsunami.ethernet.descDmaReadBytes            0                       # number of descriptor bytes read w/ DMA
system.tsunami.ethernet.descDmaWriteBytes            0                       # number of descriptor bytes write w/ DMA
system.tsunami.ethernet.postedSwi                   0                       # number of software interrupts posted to CPU
system.tsunami.ethernet.coalescedSwi              nan                       # average number of Swi's coalesced into each post
system.tsunami.ethernet.totalSwi                    0                       # total number of Swi written to ISR
system.tsunami.ethernet.postedRxIdle                0                       # number of rxIdle interrupts posted to CPU
system.tsunami.ethernet.coalescedRxIdle           nan                       # average number of RxIdle's coalesced into each post
system.tsunami.ethernet.totalRxIdle                 0                       # total number of RxIdle written to ISR
system.tsunami.ethernet.postedRxOk                  0                       # number of RxOk interrupts posted to CPU
system.tsunami.ethernet.coalescedRxOk             nan                       # average number of RxOk's coalesced into each post
system.tsunami.ethernet.totalRxOk                   0                       # total number of RxOk written to ISR
system.tsunami.ethernet.postedRxDesc                0                       # number of RxDesc interrupts posted to CPU
system.tsunami.ethernet.coalescedRxDesc           nan                       # average number of RxDesc's coalesced into each post
system.tsunami.ethernet.totalRxDesc                 0                       # total number of RxDesc written to ISR
system.tsunami.ethernet.postedTxOk                  0                       # number of TxOk interrupts posted to CPU
system.tsunami.ethernet.coalescedTxOk             nan                       # average number of TxOk's coalesced into each post
system.tsunami.ethernet.totalTxOk                   0                       # total number of TxOk written to ISR
system.tsunami.ethernet.postedTxIdle                0                       # number of TxIdle interrupts posted to CPU
system.tsunami.ethernet.coalescedTxIdle           nan                       # average number of TxIdle's coalesced into each post
system.tsunami.ethernet.totalTxIdle                 0                       # total number of TxIdle written to ISR
system.tsunami.ethernet.postedTxDesc                0                       # number of TxDesc interrupts posted to CPU
system.tsunami.ethernet.coalescedTxDesc           nan                       # average number of TxDesc's coalesced into each post
system.tsunami.ethernet.totalTxDesc                 0                       # total number of TxDesc written to ISR
system.tsunami.ethernet.postedRxOrn                 0                       # number of RxOrn posted to CPU
system.tsunami.ethernet.coalescedRxOrn            nan                       # average number of RxOrn's coalesced into each post
system.tsunami.ethernet.totalRxOrn                  0                       # total number of RxOrn written to ISR
system.tsunami.ethernet.coalescedTotal            nan                       # average number of interrupts coalesced into each post
system.tsunami.ethernet.postedInterrupts            0                       # number of posts to CPU
system.tsunami.ethernet.droppedPackets              0                       # number of packets dropped
system.switch_cpus.kern.inst.arm                    0                       # number of arm instructions executed
system.switch_cpus.kern.inst.quiesce                0                       # number of quiesce instructions executed
system.switch_cpus.kern.inst.hwrei                  0                       # number of hwrei instructions executed
system.switch_cpus.kern.mode_switch::kernel            0                       # number of protection mode switches
system.switch_cpus.kern.mode_switch::user            0                       # number of protection mode switches
system.switch_cpus.kern.mode_switch::idle            0                       # number of protection mode switches
system.switch_cpus.kern.mode_good::kernel            0                      
system.switch_cpus.kern.mode_good::user             0                      
system.switch_cpus.kern.mode_good::idle             0                      
system.switch_cpus.kern.mode_switch_good::kernel          nan                       # fraction of useful protection mode switches
system.switch_cpus.kern.mode_switch_good::user          nan                       # fraction of useful protection mode switches
system.switch_cpus.kern.mode_switch_good::idle          nan                       # fraction of useful protection mode switches
system.switch_cpus.kern.mode_switch_good::total          nan                       # fraction of useful protection mode switches
system.switch_cpus.kern.mode_ticks::kernel            0                       # number of ticks spent at the given mode
system.switch_cpus.kern.mode_ticks::user            0                       # number of ticks spent at the given mode
system.switch_cpus.kern.mode_ticks::idle            0                       # number of ticks spent at the given mode
system.switch_cpus.kern.swap_context                0                       # number of times the context was actually changed

---------- End Simulation Statistics   ----------
