
---------- Begin Simulation Statistics ----------
sim_seconds                                  0.001254                       # Number of seconds simulated
sim_ticks                                  1254302000                       # Number of ticks simulated
final_tick                               2255694814000                       # Number of ticks from beginning of simulation (restored from checkpoints and never reset)
sim_freq                                 1000000000000                       # Frequency of simulated ticks
host_inst_rate                               29033874                       # Simulator instruction rate (inst/s)
host_op_rate                                 29033810                       # Simulator op (including micro ops) rate (op/s)
host_tick_rate                              371660891                       # Simulator tick rate (ticks/s)
host_mem_usage                                 729108                       # Number of bytes of host memory used
host_seconds                                     3.37                       # Real time elapsed on the host
sim_insts                                    97984743                       # Number of instructions simulated
sim_ops                                      97984743                       # Number of ops (including micro ops) simulated
system.voltage_domain.voltage                       1                       # Voltage in Volts
system.clk_domain.clock                          1000                       # Clock period in ticks
system.mem_ctrls.bytes_read::switch_cpus.inst       455360                       # Number of bytes read from this memory
system.mem_ctrls.bytes_read::switch_cpus.data      1001536                       # Number of bytes read from this memory
system.mem_ctrls.bytes_read::total            1456896                       # Number of bytes read from this memory
system.mem_ctrls.bytes_inst_read::switch_cpus.inst       455360                       # Number of instructions bytes read from this memory
system.mem_ctrls.bytes_inst_read::total        455360                       # Number of instructions bytes read from this memory
system.mem_ctrls.bytes_written::writebacks       608064                       # Number of bytes written to this memory
system.mem_ctrls.bytes_written::total          608064                       # Number of bytes written to this memory
system.mem_ctrls.num_reads::switch_cpus.inst         7115                       # Number of read requests responded to by this memory
system.mem_ctrls.num_reads::switch_cpus.data        15649                       # Number of read requests responded to by this memory
system.mem_ctrls.num_reads::total               22764                       # Number of read requests responded to by this memory
system.mem_ctrls.num_writes::writebacks          9501                       # Number of write requests responded to by this memory
system.mem_ctrls.num_writes::total               9501                       # Number of write requests responded to by this memory
system.mem_ctrls.bw_read::switch_cpus.inst    363038566                       # Total read bandwidth from this memory (bytes/s)
system.mem_ctrls.bw_read::switch_cpus.data    798480749                       # Total read bandwidth from this memory (bytes/s)
system.mem_ctrls.bw_read::total            1161519315                       # Total read bandwidth from this memory (bytes/s)
system.mem_ctrls.bw_inst_read::switch_cpus.inst    363038566                       # Instruction read bandwidth from this memory (bytes/s)
system.mem_ctrls.bw_inst_read::total        363038566                       # Instruction read bandwidth from this memory (bytes/s)
system.mem_ctrls.bw_write::writebacks       484782772                       # Write bandwidth from this memory (bytes/s)
system.mem_ctrls.bw_write::total            484782772                       # Write bandwidth from this memory (bytes/s)
system.mem_ctrls.bw_total::writebacks       484782772                       # Total bandwidth to/from this memory (bytes/s)
system.mem_ctrls.bw_total::switch_cpus.inst    363038566                       # Total bandwidth to/from this memory (bytes/s)
system.mem_ctrls.bw_total::switch_cpus.data    798480749                       # Total bandwidth to/from this memory (bytes/s)
system.mem_ctrls.bw_total::total           1646302087                       # Total bandwidth to/from this memory (bytes/s)
system.mem_ctrls.readReqs                       22764                       # Number of read requests accepted
system.mem_ctrls.writeReqs                       9501                       # Number of write requests accepted
system.mem_ctrls.readBursts                     22764                       # Number of DRAM read bursts, including those serviced by the write queue
system.mem_ctrls.writeBursts                     9501                       # Number of DRAM write bursts, including those merged in the write queue
system.mem_ctrls.bytesReadDRAM                1453632                       # Total number of bytes read from DRAM
system.mem_ctrls.bytesReadWrQ                    3264                       # Total number of bytes read from write queue
system.mem_ctrls.bytesWritten                  606784                       # Total number of bytes written to DRAM
system.mem_ctrls.bytesReadSys                 1456896                       # Total read bytes from the system interface side
system.mem_ctrls.bytesWrittenSys               608064                       # Total written bytes from the system interface side
system.mem_ctrls.servicedByWrQ                     51                       # Number of DRAM read bursts serviced by the write queue
system.mem_ctrls.mergedWrBursts                     2                       # Number of DRAM write bursts merged with an existing one
system.mem_ctrls.neitherReadNorWriteReqs            8                       # Number of requests that are neither read nor write
system.mem_ctrls.perBankRdBursts::0              1479                       # Per bank write bursts
system.mem_ctrls.perBankRdBursts::1              1081                       # Per bank write bursts
system.mem_ctrls.perBankRdBursts::2              1597                       # Per bank write bursts
system.mem_ctrls.perBankRdBursts::3              1468                       # Per bank write bursts
system.mem_ctrls.perBankRdBursts::4              1574                       # Per bank write bursts
system.mem_ctrls.perBankRdBursts::5              1172                       # Per bank write bursts
system.mem_ctrls.perBankRdBursts::6              1533                       # Per bank write bursts
system.mem_ctrls.perBankRdBursts::7              1150                       # Per bank write bursts
system.mem_ctrls.perBankRdBursts::8              1403                       # Per bank write bursts
system.mem_ctrls.perBankRdBursts::9              1469                       # Per bank write bursts
system.mem_ctrls.perBankRdBursts::10             1382                       # Per bank write bursts
system.mem_ctrls.perBankRdBursts::11             1693                       # Per bank write bursts
system.mem_ctrls.perBankRdBursts::12             1301                       # Per bank write bursts
system.mem_ctrls.perBankRdBursts::13             2102                       # Per bank write bursts
system.mem_ctrls.perBankRdBursts::14             1314                       # Per bank write bursts
system.mem_ctrls.perBankRdBursts::15              995                       # Per bank write bursts
system.mem_ctrls.perBankWrBursts::0               549                       # Per bank write bursts
system.mem_ctrls.perBankWrBursts::1               589                       # Per bank write bursts
system.mem_ctrls.perBankWrBursts::2               883                       # Per bank write bursts
system.mem_ctrls.perBankWrBursts::3              1021                       # Per bank write bursts
system.mem_ctrls.perBankWrBursts::4               906                       # Per bank write bursts
system.mem_ctrls.perBankWrBursts::5               646                       # Per bank write bursts
system.mem_ctrls.perBankWrBursts::6               807                       # Per bank write bursts
system.mem_ctrls.perBankWrBursts::7               431                       # Per bank write bursts
system.mem_ctrls.perBankWrBursts::8               399                       # Per bank write bursts
system.mem_ctrls.perBankWrBursts::9               695                       # Per bank write bursts
system.mem_ctrls.perBankWrBursts::10              295                       # Per bank write bursts
system.mem_ctrls.perBankWrBursts::11              428                       # Per bank write bursts
system.mem_ctrls.perBankWrBursts::12              277                       # Per bank write bursts
system.mem_ctrls.perBankWrBursts::13              516                       # Per bank write bursts
system.mem_ctrls.perBankWrBursts::14              528                       # Per bank write bursts
system.mem_ctrls.perBankWrBursts::15              511                       # Per bank write bursts
system.mem_ctrls.numRdRetry                         0                       # Number of times read queue was full causing retry
system.mem_ctrls.numWrRetry                         0                       # Number of times write queue was full causing retry
system.mem_ctrls.totGap                    1254271000                       # Total gap between requests
system.mem_ctrls.readPktSize::0                     0                       # Read request sizes (log2)
system.mem_ctrls.readPktSize::1                     0                       # Read request sizes (log2)
system.mem_ctrls.readPktSize::2                     0                       # Read request sizes (log2)
system.mem_ctrls.readPktSize::3                     0                       # Read request sizes (log2)
system.mem_ctrls.readPktSize::4                     0                       # Read request sizes (log2)
system.mem_ctrls.readPktSize::5                     0                       # Read request sizes (log2)
system.mem_ctrls.readPktSize::6                 22764                       # Read request sizes (log2)
system.mem_ctrls.writePktSize::0                    0                       # Write request sizes (log2)
system.mem_ctrls.writePktSize::1                    0                       # Write request sizes (log2)
system.mem_ctrls.writePktSize::2                    0                       # Write request sizes (log2)
system.mem_ctrls.writePktSize::3                    0                       # Write request sizes (log2)
system.mem_ctrls.writePktSize::4                    0                       # Write request sizes (log2)
system.mem_ctrls.writePktSize::5                    0                       # Write request sizes (log2)
system.mem_ctrls.writePktSize::6                 9501                       # Write request sizes (log2)
system.mem_ctrls.rdQLenPdf::0                   11803                       # What read queue length does an incoming req see
system.mem_ctrls.rdQLenPdf::1                    6053                       # What read queue length does an incoming req see
system.mem_ctrls.rdQLenPdf::2                    3159                       # What read queue length does an incoming req see
system.mem_ctrls.rdQLenPdf::3                    1647                       # What read queue length does an incoming req see
system.mem_ctrls.rdQLenPdf::4                      46                       # What read queue length does an incoming req see
system.mem_ctrls.rdQLenPdf::5                       5                       # What read queue length does an incoming req see
system.mem_ctrls.rdQLenPdf::6                       0                       # What read queue length does an incoming req see
system.mem_ctrls.rdQLenPdf::7                       0                       # What read queue length does an incoming req see
system.mem_ctrls.rdQLenPdf::8                       0                       # What read queue length does an incoming req see
system.mem_ctrls.rdQLenPdf::9                       0                       # What read queue length does an incoming req see
system.mem_ctrls.rdQLenPdf::10                      0                       # What read queue length does an incoming req see
system.mem_ctrls.rdQLenPdf::11                      0                       # What read queue length does an incoming req see
system.mem_ctrls.rdQLenPdf::12                      0                       # What read queue length does an incoming req see
system.mem_ctrls.rdQLenPdf::13                      0                       # What read queue length does an incoming req see
system.mem_ctrls.rdQLenPdf::14                      0                       # What read queue length does an incoming req see
system.mem_ctrls.rdQLenPdf::15                      0                       # What read queue length does an incoming req see
system.mem_ctrls.rdQLenPdf::16                      0                       # What read queue length does an incoming req see
system.mem_ctrls.rdQLenPdf::17                      0                       # What read queue length does an incoming req see
system.mem_ctrls.rdQLenPdf::18                      0                       # What read queue length does an incoming req see
system.mem_ctrls.rdQLenPdf::19                      0                       # What read queue length does an incoming req see
system.mem_ctrls.rdQLenPdf::20                      0                       # What read queue length does an incoming req see
system.mem_ctrls.rdQLenPdf::21                      0                       # What read queue length does an incoming req see
system.mem_ctrls.rdQLenPdf::22                      0                       # What read queue length does an incoming req see
system.mem_ctrls.rdQLenPdf::23                      0                       # What read queue length does an incoming req see
system.mem_ctrls.rdQLenPdf::24                      0                       # What read queue length does an incoming req see
system.mem_ctrls.rdQLenPdf::25                      0                       # What read queue length does an incoming req see
system.mem_ctrls.rdQLenPdf::26                      0                       # What read queue length does an incoming req see
system.mem_ctrls.rdQLenPdf::27                      0                       # What read queue length does an incoming req see
system.mem_ctrls.rdQLenPdf::28                      0                       # What read queue length does an incoming req see
system.mem_ctrls.rdQLenPdf::29                      0                       # What read queue length does an incoming req see
system.mem_ctrls.rdQLenPdf::30                      0                       # What read queue length does an incoming req see
system.mem_ctrls.rdQLenPdf::31                      0                       # What read queue length does an incoming req see
system.mem_ctrls.wrQLenPdf::0                       1                       # What write queue length does an incoming req see
system.mem_ctrls.wrQLenPdf::1                       1                       # What write queue length does an incoming req see
system.mem_ctrls.wrQLenPdf::2                       1                       # What write queue length does an incoming req see
system.mem_ctrls.wrQLenPdf::3                       1                       # What write queue length does an incoming req see
system.mem_ctrls.wrQLenPdf::4                       1                       # What write queue length does an incoming req see
system.mem_ctrls.wrQLenPdf::5                       1                       # What write queue length does an incoming req see
system.mem_ctrls.wrQLenPdf::6                       1                       # What write queue length does an incoming req see
system.mem_ctrls.wrQLenPdf::7                       1                       # What write queue length does an incoming req see
system.mem_ctrls.wrQLenPdf::8                       1                       # What write queue length does an incoming req see
system.mem_ctrls.wrQLenPdf::9                       1                       # What write queue length does an incoming req see
system.mem_ctrls.wrQLenPdf::10                      1                       # What write queue length does an incoming req see
system.mem_ctrls.wrQLenPdf::11                      1                       # What write queue length does an incoming req see
system.mem_ctrls.wrQLenPdf::12                      1                       # What write queue length does an incoming req see
system.mem_ctrls.wrQLenPdf::13                      1                       # What write queue length does an incoming req see
system.mem_ctrls.wrQLenPdf::14                      1                       # What write queue length does an incoming req see
system.mem_ctrls.wrQLenPdf::15                     44                       # What write queue length does an incoming req see
system.mem_ctrls.wrQLenPdf::16                     48                       # What write queue length does an incoming req see
system.mem_ctrls.wrQLenPdf::17                    284                       # What write queue length does an incoming req see
system.mem_ctrls.wrQLenPdf::18                    437                       # What write queue length does an incoming req see
system.mem_ctrls.wrQLenPdf::19                    539                       # What write queue length does an incoming req see
system.mem_ctrls.wrQLenPdf::20                    594                       # What write queue length does an incoming req see
system.mem_ctrls.wrQLenPdf::21                    609                       # What write queue length does an incoming req see
system.mem_ctrls.wrQLenPdf::22                    607                       # What write queue length does an incoming req see
system.mem_ctrls.wrQLenPdf::23                    622                       # What write queue length does an incoming req see
system.mem_ctrls.wrQLenPdf::24                    628                       # What write queue length does an incoming req see
system.mem_ctrls.wrQLenPdf::25                    616                       # What write queue length does an incoming req see
system.mem_ctrls.wrQLenPdf::26                    706                       # What write queue length does an incoming req see
system.mem_ctrls.wrQLenPdf::27                    626                       # What write queue length does an incoming req see
system.mem_ctrls.wrQLenPdf::28                    642                       # What write queue length does an incoming req see
system.mem_ctrls.wrQLenPdf::29                    681                       # What write queue length does an incoming req see
system.mem_ctrls.wrQLenPdf::30                    606                       # What write queue length does an incoming req see
system.mem_ctrls.wrQLenPdf::31                    599                       # What write queue length does an incoming req see
system.mem_ctrls.wrQLenPdf::32                    588                       # What write queue length does an incoming req see
system.mem_ctrls.wrQLenPdf::33                      4                       # What write queue length does an incoming req see
system.mem_ctrls.wrQLenPdf::34                      2                       # What write queue length does an incoming req see
system.mem_ctrls.wrQLenPdf::35                      2                       # What write queue length does an incoming req see
system.mem_ctrls.wrQLenPdf::36                      0                       # What write queue length does an incoming req see
system.mem_ctrls.wrQLenPdf::37                      0                       # What write queue length does an incoming req see
system.mem_ctrls.wrQLenPdf::38                      0                       # What write queue length does an incoming req see
system.mem_ctrls.wrQLenPdf::39                      0                       # What write queue length does an incoming req see
system.mem_ctrls.wrQLenPdf::40                      0                       # What write queue length does an incoming req see
system.mem_ctrls.wrQLenPdf::41                      0                       # What write queue length does an incoming req see
system.mem_ctrls.wrQLenPdf::42                      0                       # What write queue length does an incoming req see
system.mem_ctrls.wrQLenPdf::43                      0                       # What write queue length does an incoming req see
system.mem_ctrls.wrQLenPdf::44                      0                       # What write queue length does an incoming req see
system.mem_ctrls.wrQLenPdf::45                      0                       # What write queue length does an incoming req see
system.mem_ctrls.wrQLenPdf::46                      0                       # What write queue length does an incoming req see
system.mem_ctrls.wrQLenPdf::47                      0                       # What write queue length does an incoming req see
system.mem_ctrls.wrQLenPdf::48                      0                       # What write queue length does an incoming req see
system.mem_ctrls.wrQLenPdf::49                      0                       # What write queue length does an incoming req see
system.mem_ctrls.wrQLenPdf::50                      0                       # What write queue length does an incoming req see
system.mem_ctrls.wrQLenPdf::51                      0                       # What write queue length does an incoming req see
system.mem_ctrls.wrQLenPdf::52                      0                       # What write queue length does an incoming req see
system.mem_ctrls.wrQLenPdf::53                      0                       # What write queue length does an incoming req see
system.mem_ctrls.wrQLenPdf::54                      0                       # What write queue length does an incoming req see
system.mem_ctrls.wrQLenPdf::55                      0                       # What write queue length does an incoming req see
system.mem_ctrls.wrQLenPdf::56                      0                       # What write queue length does an incoming req see
system.mem_ctrls.wrQLenPdf::57                      0                       # What write queue length does an incoming req see
system.mem_ctrls.wrQLenPdf::58                      0                       # What write queue length does an incoming req see
system.mem_ctrls.wrQLenPdf::59                      0                       # What write queue length does an incoming req see
system.mem_ctrls.wrQLenPdf::60                      0                       # What write queue length does an incoming req see
system.mem_ctrls.wrQLenPdf::61                      0                       # What write queue length does an incoming req see
system.mem_ctrls.wrQLenPdf::62                      0                       # What write queue length does an incoming req see
system.mem_ctrls.wrQLenPdf::63                      0                       # What write queue length does an incoming req see
system.mem_ctrls.bytesPerActivate::samples         8043                       # Bytes accessed per row activation
system.mem_ctrls.bytesPerActivate::mean    255.984086                       # Bytes accessed per row activation
system.mem_ctrls.bytesPerActivate::gmean   148.973266                       # Bytes accessed per row activation
system.mem_ctrls.bytesPerActivate::stdev   305.616144                       # Bytes accessed per row activation
system.mem_ctrls.bytesPerActivate::0-127         3670     45.63%     45.63% # Bytes accessed per row activation
system.mem_ctrls.bytesPerActivate::128-255         2028     25.21%     70.84% # Bytes accessed per row activation
system.mem_ctrls.bytesPerActivate::256-383          659      8.19%     79.04% # Bytes accessed per row activation
system.mem_ctrls.bytesPerActivate::384-511          322      4.00%     83.04% # Bytes accessed per row activation
system.mem_ctrls.bytesPerActivate::512-639          210      2.61%     85.65% # Bytes accessed per row activation
system.mem_ctrls.bytesPerActivate::640-767          153      1.90%     87.55% # Bytes accessed per row activation
system.mem_ctrls.bytesPerActivate::768-895          130      1.62%     89.17% # Bytes accessed per row activation
system.mem_ctrls.bytesPerActivate::896-1023          105      1.31%     90.48% # Bytes accessed per row activation
system.mem_ctrls.bytesPerActivate::1024-1151          766      9.52%    100.00% # Bytes accessed per row activation
system.mem_ctrls.bytesPerActivate::total         8043                       # Bytes accessed per row activation
system.mem_ctrls.rdPerTurnAround::samples          586                       # Reads before turning the bus around for writes
system.mem_ctrls.rdPerTurnAround::mean      38.755973                       # Reads before turning the bus around for writes
system.mem_ctrls.rdPerTurnAround::gmean     31.784769                       # Reads before turning the bus around for writes
system.mem_ctrls.rdPerTurnAround::stdev     27.427421                       # Reads before turning the bus around for writes
system.mem_ctrls.rdPerTurnAround::8-15             52      8.87%      8.87% # Reads before turning the bus around for writes
system.mem_ctrls.rdPerTurnAround::16-23           164     27.99%     36.86% # Reads before turning the bus around for writes
system.mem_ctrls.rdPerTurnAround::24-31            78     13.31%     50.17% # Reads before turning the bus around for writes
system.mem_ctrls.rdPerTurnAround::32-39            68     11.60%     61.77% # Reads before turning the bus around for writes
system.mem_ctrls.rdPerTurnAround::40-47            62     10.58%     72.35% # Reads before turning the bus around for writes
system.mem_ctrls.rdPerTurnAround::48-55            46      7.85%     80.20% # Reads before turning the bus around for writes
system.mem_ctrls.rdPerTurnAround::56-63            37      6.31%     86.52% # Reads before turning the bus around for writes
system.mem_ctrls.rdPerTurnAround::64-71            19      3.24%     89.76% # Reads before turning the bus around for writes
system.mem_ctrls.rdPerTurnAround::72-79            16      2.73%     92.49% # Reads before turning the bus around for writes
system.mem_ctrls.rdPerTurnAround::80-87             9      1.54%     94.03% # Reads before turning the bus around for writes
system.mem_ctrls.rdPerTurnAround::88-95             8      1.37%     95.39% # Reads before turning the bus around for writes
system.mem_ctrls.rdPerTurnAround::96-103            7      1.19%     96.59% # Reads before turning the bus around for writes
system.mem_ctrls.rdPerTurnAround::104-111            6      1.02%     97.61% # Reads before turning the bus around for writes
system.mem_ctrls.rdPerTurnAround::112-119            4      0.68%     98.29% # Reads before turning the bus around for writes
system.mem_ctrls.rdPerTurnAround::120-127            1      0.17%     98.46% # Reads before turning the bus around for writes
system.mem_ctrls.rdPerTurnAround::128-135            1      0.17%     98.63% # Reads before turning the bus around for writes
system.mem_ctrls.rdPerTurnAround::136-143            2      0.34%     98.98% # Reads before turning the bus around for writes
system.mem_ctrls.rdPerTurnAround::144-151            3      0.51%     99.49% # Reads before turning the bus around for writes
system.mem_ctrls.rdPerTurnAround::160-167            1      0.17%     99.66% # Reads before turning the bus around for writes
system.mem_ctrls.rdPerTurnAround::168-175            1      0.17%     99.83% # Reads before turning the bus around for writes
system.mem_ctrls.rdPerTurnAround::232-239            1      0.17%    100.00% # Reads before turning the bus around for writes
system.mem_ctrls.rdPerTurnAround::total           586                       # Reads before turning the bus around for writes
system.mem_ctrls.wrPerTurnAround::samples          586                       # Writes before turning the bus around for reads
system.mem_ctrls.wrPerTurnAround::mean      16.179181                       # Writes before turning the bus around for reads
system.mem_ctrls.wrPerTurnAround::gmean     16.168808                       # Writes before turning the bus around for reads
system.mem_ctrls.wrPerTurnAround::stdev      0.602255                       # Writes before turning the bus around for reads
system.mem_ctrls.wrPerTurnAround::16              536     91.47%     91.47% # Writes before turning the bus around for reads
system.mem_ctrls.wrPerTurnAround::17                3      0.51%     91.98% # Writes before turning the bus around for reads
system.mem_ctrls.wrPerTurnAround::18               39      6.66%     98.63% # Writes before turning the bus around for reads
system.mem_ctrls.wrPerTurnAround::19                8      1.37%    100.00% # Writes before turning the bus around for reads
system.mem_ctrls.wrPerTurnAround::total           586                       # Writes before turning the bus around for reads
system.mem_ctrls.totQLat                    411109500                       # Total ticks spent queuing
system.mem_ctrls.totMemAccLat               836978250                       # Total ticks spent from burst creation until serviced by the DRAM
system.mem_ctrls.totBusLat                  113565000                       # Total ticks spent in databus transfers
system.mem_ctrls.avgQLat                     18100.18                       # Average queueing delay per DRAM burst
system.mem_ctrls.avgBusLat                    5000.00                       # Average bus latency per DRAM burst
system.mem_ctrls.avgMemAccLat                36850.18                       # Average memory access latency per DRAM burst
system.mem_ctrls.avgRdBW                      1158.92                       # Average DRAM read bandwidth in MiByte/s
system.mem_ctrls.avgWrBW                       483.76                       # Average achieved write bandwidth in MiByte/s
system.mem_ctrls.avgRdBWSys                   1161.52                       # Average system read bandwidth in MiByte/s
system.mem_ctrls.avgWrBWSys                    484.78                       # Average system write bandwidth in MiByte/s
system.mem_ctrls.peakBW                      12800.00                       # Theoretical peak bandwidth in MiByte/s
system.mem_ctrls.busUtil                        12.83                       # Data bus utilization in percentage
system.mem_ctrls.busUtilRead                     9.05                       # Data bus utilization in percentage for reads
system.mem_ctrls.busUtilWrite                    3.78                       # Data bus utilization in percentage for writes
system.mem_ctrls.avgRdQLen                       1.74                       # Average read queue length when enqueuing
system.mem_ctrls.avgWrQLen                      25.56                       # Average write queue length when enqueuing
system.mem_ctrls.readRowHits                    17138                       # Number of row buffer hits during reads
system.mem_ctrls.writeRowHits                    7006                       # Number of row buffer hits during writes
system.mem_ctrls.readRowHitRate                 75.45                       # Row buffer hit rate for reads
system.mem_ctrls.writeRowHitRate                73.76                       # Row buffer hit rate for writes
system.mem_ctrls.avgGap                      38874.04                       # Average gap between requests
system.mem_ctrls.pageHitRate                    74.95                       # Row buffer hit rate, read and write combined
system.mem_ctrls_0.actEnergy                 30119040                       # Energy for activate commands per rank (pJ)
system.mem_ctrls_0.preEnergy                 16434000                       # Energy for precharge commands per rank (pJ)
system.mem_ctrls_0.readEnergy                86213400                       # Energy for read commands per rank (pJ)
system.mem_ctrls_0.writeEnergy               37700640                       # Energy for write commands per rank (pJ)
system.mem_ctrls_0.refreshEnergy             81878160                       # Energy for refresh commands per rank (pJ)
system.mem_ctrls_0.actBackEnergy            815451975                       # Energy for active background per rank (pJ)
system.mem_ctrls_0.preBackEnergy             36999000                       # Energy for precharge background per rank (pJ)
system.mem_ctrls_0.totalEnergy             1104796215                       # Total energy per rank (pJ)
system.mem_ctrls_0.averagePower            881.125748                       # Core power per rank (mW)
system.mem_ctrls_0.memoryStateTime::IDLE     56791000                       # Time in different power states
system.mem_ctrls_0.memoryStateTime::REF      41860000                       # Time in different power states
system.mem_ctrls_0.memoryStateTime::PRE_PDN            0                       # Time in different power states
system.mem_ctrls_0.memoryStateTime::ACT    1155486500                       # Time in different power states
system.mem_ctrls_0.memoryStateTime::ACT_PDN            0                       # Time in different power states
system.mem_ctrls_1.actEnergy                 30686040                       # Energy for activate commands per rank (pJ)
system.mem_ctrls_1.preEnergy                 16743375                       # Energy for precharge commands per rank (pJ)
system.mem_ctrls_1.readEnergy                90885600                       # Energy for read commands per rank (pJ)
system.mem_ctrls_1.writeEnergy               23632560                       # Energy for write commands per rank (pJ)
system.mem_ctrls_1.refreshEnergy             81878160                       # Energy for refresh commands per rank (pJ)
system.mem_ctrls_1.actBackEnergy            829226025                       # Energy for active background per rank (pJ)
system.mem_ctrls_1.preBackEnergy             24916500                       # Energy for precharge background per rank (pJ)
system.mem_ctrls_1.totalEnergy             1097968260                       # Total energy per rank (pJ)
system.mem_ctrls_1.averagePower            875.680140                       # Core power per rank (mW)
system.mem_ctrls_1.memoryStateTime::IDLE     36129250                       # Time in different power states
system.mem_ctrls_1.memoryStateTime::REF      41860000                       # Time in different power states
system.mem_ctrls_1.memoryStateTime::PRE_PDN            0                       # Time in different power states
system.mem_ctrls_1.memoryStateTime::ACT    1175870750                       # Time in different power states
system.mem_ctrls_1.memoryStateTime::ACT_PDN            0                       # Time in different power states
system.cpu_voltage_domain.voltage                   1                       # Voltage in Volts
system.cpu_clk_domain.clock                       500                       # Clock period in ticks
system.cpu.dtb.fetch_hits                           0                       # ITB hits
system.cpu.dtb.fetch_misses                         0                       # ITB misses
system.cpu.dtb.fetch_acv                            0                       # ITB acv
system.cpu.dtb.fetch_accesses                       0                       # ITB accesses
system.cpu.dtb.read_hits                            0                       # DTB read hits
system.cpu.dtb.read_misses                          0                       # DTB read misses
system.cpu.dtb.read_acv                             0                       # DTB read access violations
system.cpu.dtb.read_accesses                        0                       # DTB read accesses
system.cpu.dtb.write_hits                           0                       # DTB write hits
system.cpu.dtb.write_misses                         0                       # DTB write misses
system.cpu.dtb.write_acv                            0                       # DTB write access violations
system.cpu.dtb.write_accesses                       0                       # DTB write accesses
system.cpu.dtb.data_hits                            0                       # DTB hits
system.cpu.dtb.data_misses                          0                       # DTB misses
system.cpu.dtb.data_acv                             0                       # DTB access violations
system.cpu.dtb.data_accesses                        0                       # DTB accesses
system.cpu.itb.fetch_hits                           0                       # ITB hits
system.cpu.itb.fetch_misses                         0                       # ITB misses
system.cpu.itb.fetch_acv                            0                       # ITB acv
system.cpu.itb.fetch_accesses                       0                       # ITB accesses
system.cpu.itb.read_hits                            0                       # DTB read hits
system.cpu.itb.read_misses                          0                       # DTB read misses
system.cpu.itb.read_acv                             0                       # DTB read access violations
system.cpu.itb.read_accesses                        0                       # DTB read accesses
system.cpu.itb.write_hits                           0                       # DTB write hits
system.cpu.itb.write_misses                         0                       # DTB write misses
system.cpu.itb.write_acv                            0                       # DTB write access violations
system.cpu.itb.write_accesses                       0                       # DTB write accesses
system.cpu.itb.data_hits                            0                       # DTB hits
system.cpu.itb.data_misses                          0                       # DTB misses
system.cpu.itb.data_acv                             0                       # DTB access violations
system.cpu.itb.data_accesses                        0                       # DTB accesses
system.cpu.numCycles                                0                       # number of cpu cycles simulated
system.cpu.numWorkItemsStarted                      0                       # number of work items this cpu started
system.cpu.numWorkItemsCompleted                    0                       # number of work items this cpu completed
system.cpu.committedInsts                           0                       # Number of instructions committed
system.cpu.committedOps                             0                       # Number of ops (including micro ops) committed
system.cpu.num_int_alu_accesses                     0                       # Number of integer alu accesses
system.cpu.num_fp_alu_accesses                      0                       # Number of float alu accesses
system.cpu.num_func_calls                           0                       # number of times a function call or return occured
system.cpu.num_conditional_control_insts            0                       # number of instructions that are conditional controls
system.cpu.num_int_insts                            0                       # number of integer instructions
system.cpu.num_fp_insts                             0                       # number of float instructions
system.cpu.num_int_register_reads                   0                       # number of times the integer registers were read
system.cpu.num_int_register_writes                  0                       # number of times the integer registers were written
system.cpu.num_fp_register_reads                    0                       # number of times the floating registers were read
system.cpu.num_fp_register_writes                   0                       # number of times the floating registers were written
system.cpu.num_mem_refs                             0                       # number of memory refs
system.cpu.num_load_insts                           0                       # Number of load instructions
system.cpu.num_store_insts                          0                       # Number of store instructions
system.cpu.num_idle_cycles                          0                       # Number of idle cycles
system.cpu.num_busy_cycles                          0                       # Number of busy cycles
system.cpu.not_idle_fraction                        1                       # Percentage of non-idle cycles
system.cpu.idle_fraction                            0                       # Percentage of idle cycles
system.cpu.op_class::No_OpClass                     0                       # Class of executed instruction
system.cpu.op_class::IntAlu                         0                       # Class of executed instruction
system.cpu.op_class::IntMult                        0                       # Class of executed instruction
system.cpu.op_class::IntDiv                         0                       # Class of executed instruction
system.cpu.op_class::FloatAdd                       0                       # Class of executed instruction
system.cpu.op_class::FloatCmp                       0                       # Class of executed instruction
system.cpu.op_class::FloatCvt                       0                       # Class of executed instruction
system.cpu.op_class::FloatMult                      0                       # Class of executed instruction
system.cpu.op_class::FloatDiv                       0                       # Class of executed instruction
system.cpu.op_class::FloatSqrt                      0                       # Class of executed instruction
system.cpu.op_class::SimdAdd                        0                       # Class of executed instruction
system.cpu.op_class::SimdAddAcc                     0                       # Class of executed instruction
system.cpu.op_class::SimdAlu                        0                       # Class of executed instruction
system.cpu.op_class::SimdCmp                        0                       # Class of executed instruction
system.cpu.op_class::SimdCvt                        0                       # Class of executed instruction
system.cpu.op_class::SimdMisc                       0                       # Class of executed instruction
system.cpu.op_class::SimdMult                       0                       # Class of executed instruction
system.cpu.op_class::SimdMultAcc                    0                       # Class of executed instruction
system.cpu.op_class::SimdShift                      0                       # Class of executed instruction
system.cpu.op_class::SimdShiftAcc                   0                       # Class of executed instruction
system.cpu.op_class::SimdSqrt                       0                       # Class of executed instruction
system.cpu.op_class::SimdFloatAdd                   0                       # Class of executed instruction
system.cpu.op_class::SimdFloatAlu                   0                       # Class of executed instruction
system.cpu.op_class::SimdFloatCmp                   0                       # Class of executed instruction
system.cpu.op_class::SimdFloatCvt                   0                       # Class of executed instruction
system.cpu.op_class::SimdFloatDiv                   0                       # Class of executed instruction
system.cpu.op_class::SimdFloatMisc                  0                       # Class of executed instruction
system.cpu.op_class::SimdFloatMult                  0                       # Class of executed instruction
system.cpu.op_class::SimdFloatMultAcc               0                       # Class of executed instruction
system.cpu.op_class::SimdFloatSqrt                  0                       # Class of executed instruction
system.cpu.op_class::MemRead                        0                       # Class of executed instruction
system.cpu.op_class::MemWrite                       0                       # Class of executed instruction
system.cpu.op_class::IprAccess                      0                       # Class of executed instruction
system.cpu.op_class::InstPrefetch                   0                       # Class of executed instruction
system.cpu.op_class::total                          0                       # Class of executed instruction
system.cpu.kern.inst.arm                            0                       # number of arm instructions executed
system.cpu.kern.inst.quiesce                        0                       # number of quiesce instructions executed
system.cpu.kern.inst.hwrei                       2781                       # number of hwrei instructions executed
system.cpu.kern.ipl_count::0                      635     49.15%     49.15% # number of times we switched to this ipl
system.cpu.kern.ipl_count::22                       1      0.08%     49.23% # number of times we switched to this ipl
system.cpu.kern.ipl_count::31                     656     50.77%    100.00% # number of times we switched to this ipl
system.cpu.kern.ipl_count::total                 1292                       # number of times we switched to this ipl
system.cpu.kern.ipl_good::0                       633     49.96%     49.96% # number of times we switched to this ipl from a different ipl
system.cpu.kern.ipl_good::22                        1      0.08%     50.04% # number of times we switched to this ipl from a different ipl
system.cpu.kern.ipl_good::31                      633     49.96%    100.00% # number of times we switched to this ipl from a different ipl
system.cpu.kern.ipl_good::total                  1267                       # number of times we switched to this ipl from a different ipl
system.cpu.kern.ipl_ticks::0               1142419000     91.23%     91.23% # number of cycles we spent at this ipl
system.cpu.kern.ipl_ticks::22                 1623000      0.13%     91.36% # number of cycles we spent at this ipl
system.cpu.kern.ipl_ticks::31               108196000      8.64%    100.00% # number of cycles we spent at this ipl
system.cpu.kern.ipl_ticks::total           1252238000                       # number of cycles we spent at this ipl
system.cpu.kern.ipl_used::0                  0.996850                       # fraction of swpipl calls that actually changed the ipl
system.cpu.kern.ipl_used::22                        1                       # fraction of swpipl calls that actually changed the ipl
system.cpu.kern.ipl_used::31                 0.964939                       # fraction of swpipl calls that actually changed the ipl
system.cpu.kern.ipl_used::total              0.980650                       # fraction of swpipl calls that actually changed the ipl
system.cpu.kern.syscall::2                          1      5.56%      5.56% # number of syscalls executed
system.cpu.kern.syscall::3                          2     11.11%     16.67% # number of syscalls executed
system.cpu.kern.syscall::6                          2     11.11%     27.78% # number of syscalls executed
system.cpu.kern.syscall::17                         1      5.56%     33.33% # number of syscalls executed
system.cpu.kern.syscall::19                         1      5.56%     38.89% # number of syscalls executed
system.cpu.kern.syscall::33                         1      5.56%     44.44% # number of syscalls executed
system.cpu.kern.syscall::45                         3     16.67%     61.11% # number of syscalls executed
system.cpu.kern.syscall::48                         1      5.56%     66.67% # number of syscalls executed
system.cpu.kern.syscall::59                         1      5.56%     72.22% # number of syscalls executed
system.cpu.kern.syscall::71                         4     22.22%     94.44% # number of syscalls executed
system.cpu.kern.syscall::74                         1      5.56%    100.00% # number of syscalls executed
system.cpu.kern.syscall::total                     18                       # number of syscalls executed
system.cpu.kern.callpal::swpctx                   118      8.10%      8.10% # number of callpals executed
system.cpu.kern.callpal::tbi                        6      0.41%      8.51% # number of callpals executed
system.cpu.kern.callpal::swpipl                  1107     75.98%     84.49% # number of callpals executed
system.cpu.kern.callpal::rdps                       3      0.21%     84.69% # number of callpals executed
system.cpu.kern.callpal::wrusp                      1      0.07%     84.76% # number of callpals executed
system.cpu.kern.callpal::rdusp                      1      0.07%     84.83% # number of callpals executed
system.cpu.kern.callpal::rti                      184     12.63%     97.46% # number of callpals executed
system.cpu.kern.callpal::callsys                   33      2.26%     99.73% # number of callpals executed
system.cpu.kern.callpal::imb                        4      0.27%    100.00% # number of callpals executed
system.cpu.kern.callpal::total                   1457                       # number of callpals executed
system.cpu.kern.mode_switch::kernel               302                       # number of protection mode switches
system.cpu.kern.mode_switch::user                 181                       # number of protection mode switches
system.cpu.kern.mode_switch::idle                   0                       # number of protection mode switches
system.cpu.kern.mode_good::kernel                 181                      
system.cpu.kern.mode_good::user                   181                      
system.cpu.kern.mode_good::idle                     0                      
system.cpu.kern.mode_switch_good::kernel     0.599338                       # fraction of useful protection mode switches
system.cpu.kern.mode_switch_good::user              1                       # fraction of useful protection mode switches
system.cpu.kern.mode_switch_good::idle            nan                       # fraction of useful protection mode switches
system.cpu.kern.mode_switch_good::total      0.749482                       # fraction of useful protection mode switches
system.cpu.kern.mode_ticks::kernel          881949500     70.43%     70.43% # number of ticks spent at the given mode
system.cpu.kern.mode_ticks::user            370281500     29.57%    100.00% # number of ticks spent at the given mode
system.cpu.kern.mode_ticks::idle                    0      0.00%    100.00% # number of ticks spent at the given mode
system.cpu.kern.swap_context                      118                       # number of times the context was actually changed
system.cpu.dcache.tags.replacements             18285                       # number of replacements
system.cpu.dcache.tags.tagsinuse                  512                       # Cycle average of tags in use
system.cpu.dcache.tags.total_refs              200106                       # Total number of references to valid blocks.
system.cpu.dcache.tags.sampled_refs             18285                       # Sample count of references to valid blocks.
system.cpu.dcache.tags.avg_refs             10.943724                       # Average number of references to valid blocks.
system.cpu.dcache.tags.warmup_cycle                 0                       # Cycle when the warmup percentage was hit.
system.cpu.dcache.tags.occ_blocks::cpu.data    24.399994                       # Average occupied blocks per requestor
system.cpu.dcache.tags.occ_blocks::switch_cpus.data   487.600006                       # Average occupied blocks per requestor
system.cpu.dcache.tags.occ_percent::cpu.data     0.047656                       # Average percentage of cache occupancy
system.cpu.dcache.tags.occ_percent::switch_cpus.data     0.952344                       # Average percentage of cache occupancy
system.cpu.dcache.tags.occ_percent::total            1                       # Average percentage of cache occupancy
system.cpu.dcache.tags.occ_task_id_blocks::1024          512                       # Occupied blocks per task id
system.cpu.dcache.tags.age_task_id_blocks_1024::0           85                       # Occupied blocks per task id
system.cpu.dcache.tags.age_task_id_blocks_1024::1          369                       # Occupied blocks per task id
system.cpu.dcache.tags.age_task_id_blocks_1024::2           58                       # Occupied blocks per task id
system.cpu.dcache.tags.occ_task_id_percent::1024            1                       # Percentage of cache occupancy per task id
system.cpu.dcache.tags.tag_accesses           1186237                       # Number of tag accesses
system.cpu.dcache.tags.data_accesses          1186237                       # Number of data accesses
system.cpu.dcache.ReadReq_hits::switch_cpus.data       133963                       # number of ReadReq hits
system.cpu.dcache.ReadReq_hits::total          133963                       # number of ReadReq hits
system.cpu.dcache.WriteReq_hits::switch_cpus.data        58716                       # number of WriteReq hits
system.cpu.dcache.WriteReq_hits::total          58716                       # number of WriteReq hits
system.cpu.dcache.LoadLockedReq_hits::switch_cpus.data         2208                       # number of LoadLockedReq hits
system.cpu.dcache.LoadLockedReq_hits::total         2208                       # number of LoadLockedReq hits
system.cpu.dcache.StoreCondReq_hits::switch_cpus.data         2377                       # number of StoreCondReq hits
system.cpu.dcache.StoreCondReq_hits::total         2377                       # number of StoreCondReq hits
system.cpu.dcache.demand_hits::switch_cpus.data       192679                       # number of demand (read+write) hits
system.cpu.dcache.demand_hits::total           192679                       # number of demand (read+write) hits
system.cpu.dcache.overall_hits::switch_cpus.data       192679                       # number of overall hits
system.cpu.dcache.overall_hits::total          192679                       # number of overall hits
system.cpu.dcache.ReadReq_misses::switch_cpus.data        26796                       # number of ReadReq misses
system.cpu.dcache.ReadReq_misses::total         26796                       # number of ReadReq misses
system.cpu.dcache.WriteReq_misses::switch_cpus.data        67523                       # number of WriteReq misses
system.cpu.dcache.WriteReq_misses::total        67523                       # number of WriteReq misses
system.cpu.dcache.LoadLockedReq_misses::switch_cpus.data          404                       # number of LoadLockedReq misses
system.cpu.dcache.LoadLockedReq_misses::total          404                       # number of LoadLockedReq misses
system.cpu.dcache.StoreCondReq_misses::switch_cpus.data            1                       # number of StoreCondReq misses
system.cpu.dcache.StoreCondReq_misses::total            1                       # number of StoreCondReq misses
system.cpu.dcache.demand_misses::switch_cpus.data        94319                       # number of demand (read+write) misses
system.cpu.dcache.demand_misses::total          94319                       # number of demand (read+write) misses
system.cpu.dcache.overall_misses::switch_cpus.data        94319                       # number of overall misses
system.cpu.dcache.overall_misses::total         94319                       # number of overall misses
system.cpu.dcache.ReadReq_miss_latency::switch_cpus.data   1655002249                       # number of ReadReq miss cycles
system.cpu.dcache.ReadReq_miss_latency::total   1655002249                       # number of ReadReq miss cycles
system.cpu.dcache.WriteReq_miss_latency::switch_cpus.data   5035320673                       # number of WriteReq miss cycles
system.cpu.dcache.WriteReq_miss_latency::total   5035320673                       # number of WriteReq miss cycles
system.cpu.dcache.LoadLockedReq_miss_latency::switch_cpus.data     28522750                       # number of LoadLockedReq miss cycles
system.cpu.dcache.LoadLockedReq_miss_latency::total     28522750                       # number of LoadLockedReq miss cycles
system.cpu.dcache.StoreCondReq_miss_latency::switch_cpus.data        34001                       # number of StoreCondReq miss cycles
system.cpu.dcache.StoreCondReq_miss_latency::total        34001                       # number of StoreCondReq miss cycles
system.cpu.dcache.demand_miss_latency::switch_cpus.data   6690322922                       # number of demand (read+write) miss cycles
system.cpu.dcache.demand_miss_latency::total   6690322922                       # number of demand (read+write) miss cycles
system.cpu.dcache.overall_miss_latency::switch_cpus.data   6690322922                       # number of overall miss cycles
system.cpu.dcache.overall_miss_latency::total   6690322922                       # number of overall miss cycles
system.cpu.dcache.ReadReq_accesses::switch_cpus.data       160759                       # number of ReadReq accesses(hits+misses)
system.cpu.dcache.ReadReq_accesses::total       160759                       # number of ReadReq accesses(hits+misses)
system.cpu.dcache.WriteReq_accesses::switch_cpus.data       126239                       # number of WriteReq accesses(hits+misses)
system.cpu.dcache.WriteReq_accesses::total       126239                       # number of WriteReq accesses(hits+misses)
system.cpu.dcache.LoadLockedReq_accesses::switch_cpus.data         2612                       # number of LoadLockedReq accesses(hits+misses)
system.cpu.dcache.LoadLockedReq_accesses::total         2612                       # number of LoadLockedReq accesses(hits+misses)
system.cpu.dcache.StoreCondReq_accesses::switch_cpus.data         2378                       # number of StoreCondReq accesses(hits+misses)
system.cpu.dcache.StoreCondReq_accesses::total         2378                       # number of StoreCondReq accesses(hits+misses)
system.cpu.dcache.demand_accesses::switch_cpus.data       286998                       # number of demand (read+write) accesses
system.cpu.dcache.demand_accesses::total       286998                       # number of demand (read+write) accesses
system.cpu.dcache.overall_accesses::switch_cpus.data       286998                       # number of overall (read+write) accesses
system.cpu.dcache.overall_accesses::total       286998                       # number of overall (read+write) accesses
system.cpu.dcache.ReadReq_miss_rate::switch_cpus.data     0.166684                       # miss rate for ReadReq accesses
system.cpu.dcache.ReadReq_miss_rate::total     0.166684                       # miss rate for ReadReq accesses
system.cpu.dcache.WriteReq_miss_rate::switch_cpus.data     0.534882                       # miss rate for WriteReq accesses
system.cpu.dcache.WriteReq_miss_rate::total     0.534882                       # miss rate for WriteReq accesses
system.cpu.dcache.LoadLockedReq_miss_rate::switch_cpus.data     0.154671                       # miss rate for LoadLockedReq accesses
system.cpu.dcache.LoadLockedReq_miss_rate::total     0.154671                       # miss rate for LoadLockedReq accesses
system.cpu.dcache.StoreCondReq_miss_rate::switch_cpus.data     0.000421                       # miss rate for StoreCondReq accesses
system.cpu.dcache.StoreCondReq_miss_rate::total     0.000421                       # miss rate for StoreCondReq accesses
system.cpu.dcache.demand_miss_rate::switch_cpus.data     0.328640                       # miss rate for demand accesses
system.cpu.dcache.demand_miss_rate::total     0.328640                       # miss rate for demand accesses
system.cpu.dcache.overall_miss_rate::switch_cpus.data     0.328640                       # miss rate for overall accesses
system.cpu.dcache.overall_miss_rate::total     0.328640                       # miss rate for overall accesses
system.cpu.dcache.ReadReq_avg_miss_latency::switch_cpus.data 61763.033624                       # average ReadReq miss latency
system.cpu.dcache.ReadReq_avg_miss_latency::total 61763.033624                       # average ReadReq miss latency
system.cpu.dcache.WriteReq_avg_miss_latency::switch_cpus.data 74571.933608                       # average WriteReq miss latency
system.cpu.dcache.WriteReq_avg_miss_latency::total 74571.933608                       # average WriteReq miss latency
system.cpu.dcache.LoadLockedReq_avg_miss_latency::switch_cpus.data 70600.866337                       # average LoadLockedReq miss latency
system.cpu.dcache.LoadLockedReq_avg_miss_latency::total 70600.866337                       # average LoadLockedReq miss latency
system.cpu.dcache.StoreCondReq_avg_miss_latency::switch_cpus.data        34001                       # average StoreCondReq miss latency
system.cpu.dcache.StoreCondReq_avg_miss_latency::total        34001                       # average StoreCondReq miss latency
system.cpu.dcache.demand_avg_miss_latency::switch_cpus.data 70932.928911                       # average overall miss latency
system.cpu.dcache.demand_avg_miss_latency::total 70932.928911                       # average overall miss latency
system.cpu.dcache.overall_avg_miss_latency::switch_cpus.data 70932.928911                       # average overall miss latency
system.cpu.dcache.overall_avg_miss_latency::total 70932.928911                       # average overall miss latency
system.cpu.dcache.blocked_cycles::no_mshrs       391831                       # number of cycles access was blocked
system.cpu.dcache.blocked_cycles::no_targets            0                       # number of cycles access was blocked
system.cpu.dcache.blocked::no_mshrs              7548                       # number of cycles access was blocked
system.cpu.dcache.blocked::no_targets               0                       # number of cycles access was blocked
system.cpu.dcache.avg_blocked_cycles::no_mshrs    51.911897                       # average number of cycles each access was blocked
system.cpu.dcache.avg_blocked_cycles::no_targets          nan                       # average number of cycles each access was blocked
system.cpu.dcache.fast_writes                       0                       # number of fast writes performed
system.cpu.dcache.cache_copies                      0                       # number of cache copies performed
system.cpu.dcache.writebacks::writebacks        10987                       # number of writebacks
system.cpu.dcache.writebacks::total             10987                       # number of writebacks
system.cpu.dcache.ReadReq_mshr_hits::switch_cpus.data        17817                       # number of ReadReq MSHR hits
system.cpu.dcache.ReadReq_mshr_hits::total        17817                       # number of ReadReq MSHR hits
system.cpu.dcache.WriteReq_mshr_hits::switch_cpus.data        58430                       # number of WriteReq MSHR hits
system.cpu.dcache.WriteReq_mshr_hits::total        58430                       # number of WriteReq MSHR hits
system.cpu.dcache.LoadLockedReq_mshr_hits::switch_cpus.data          180                       # number of LoadLockedReq MSHR hits
system.cpu.dcache.LoadLockedReq_mshr_hits::total          180                       # number of LoadLockedReq MSHR hits
system.cpu.dcache.demand_mshr_hits::switch_cpus.data        76247                       # number of demand (read+write) MSHR hits
system.cpu.dcache.demand_mshr_hits::total        76247                       # number of demand (read+write) MSHR hits
system.cpu.dcache.overall_mshr_hits::switch_cpus.data        76247                       # number of overall MSHR hits
system.cpu.dcache.overall_mshr_hits::total        76247                       # number of overall MSHR hits
system.cpu.dcache.ReadReq_mshr_misses::switch_cpus.data         8979                       # number of ReadReq MSHR misses
system.cpu.dcache.ReadReq_mshr_misses::total         8979                       # number of ReadReq MSHR misses
system.cpu.dcache.WriteReq_mshr_misses::switch_cpus.data         9093                       # number of WriteReq MSHR misses
system.cpu.dcache.WriteReq_mshr_misses::total         9093                       # number of WriteReq MSHR misses
system.cpu.dcache.LoadLockedReq_mshr_misses::switch_cpus.data          224                       # number of LoadLockedReq MSHR misses
system.cpu.dcache.LoadLockedReq_mshr_misses::total          224                       # number of LoadLockedReq MSHR misses
system.cpu.dcache.StoreCondReq_mshr_misses::switch_cpus.data            1                       # number of StoreCondReq MSHR misses
system.cpu.dcache.StoreCondReq_mshr_misses::total            1                       # number of StoreCondReq MSHR misses
system.cpu.dcache.demand_mshr_misses::switch_cpus.data        18072                       # number of demand (read+write) MSHR misses
system.cpu.dcache.demand_mshr_misses::total        18072                       # number of demand (read+write) MSHR misses
system.cpu.dcache.overall_mshr_misses::switch_cpus.data        18072                       # number of overall MSHR misses
system.cpu.dcache.overall_mshr_misses::total        18072                       # number of overall MSHR misses
system.cpu.dcache.WriteReq_mshr_uncacheable::switch_cpus.data            1                       # number of WriteReq MSHR uncacheable
system.cpu.dcache.WriteReq_mshr_uncacheable::total            1                       # number of WriteReq MSHR uncacheable
system.cpu.dcache.overall_mshr_uncacheable_misses::switch_cpus.data            1                       # number of overall MSHR uncacheable misses
system.cpu.dcache.overall_mshr_uncacheable_misses::total            1                       # number of overall MSHR uncacheable misses
system.cpu.dcache.ReadReq_mshr_miss_latency::switch_cpus.data    642792001                       # number of ReadReq MSHR miss cycles
system.cpu.dcache.ReadReq_mshr_miss_latency::total    642792001                       # number of ReadReq MSHR miss cycles
system.cpu.dcache.WriteReq_mshr_miss_latency::switch_cpus.data    780826044                       # number of WriteReq MSHR miss cycles
system.cpu.dcache.WriteReq_mshr_miss_latency::total    780826044                       # number of WriteReq MSHR miss cycles
system.cpu.dcache.LoadLockedReq_mshr_miss_latency::switch_cpus.data     15299250                       # number of LoadLockedReq MSHR miss cycles
system.cpu.dcache.LoadLockedReq_mshr_miss_latency::total     15299250                       # number of LoadLockedReq MSHR miss cycles
system.cpu.dcache.StoreCondReq_mshr_miss_latency::switch_cpus.data        32499                       # number of StoreCondReq MSHR miss cycles
system.cpu.dcache.StoreCondReq_mshr_miss_latency::total        32499                       # number of StoreCondReq MSHR miss cycles
system.cpu.dcache.demand_mshr_miss_latency::switch_cpus.data   1423618045                       # number of demand (read+write) MSHR miss cycles
system.cpu.dcache.demand_mshr_miss_latency::total   1423618045                       # number of demand (read+write) MSHR miss cycles
system.cpu.dcache.overall_mshr_miss_latency::switch_cpus.data   1423618045                       # number of overall MSHR miss cycles
system.cpu.dcache.overall_mshr_miss_latency::total   1423618045                       # number of overall MSHR miss cycles
system.cpu.dcache.WriteReq_mshr_uncacheable_latency::switch_cpus.data       223500                       # number of WriteReq MSHR uncacheable cycles
system.cpu.dcache.WriteReq_mshr_uncacheable_latency::total       223500                       # number of WriteReq MSHR uncacheable cycles
system.cpu.dcache.overall_mshr_uncacheable_latency::switch_cpus.data       223500                       # number of overall MSHR uncacheable cycles
system.cpu.dcache.overall_mshr_uncacheable_latency::total       223500                       # number of overall MSHR uncacheable cycles
system.cpu.dcache.ReadReq_mshr_miss_rate::switch_cpus.data     0.055854                       # mshr miss rate for ReadReq accesses
system.cpu.dcache.ReadReq_mshr_miss_rate::total     0.055854                       # mshr miss rate for ReadReq accesses
system.cpu.dcache.WriteReq_mshr_miss_rate::switch_cpus.data     0.072030                       # mshr miss rate for WriteReq accesses
system.cpu.dcache.WriteReq_mshr_miss_rate::total     0.072030                       # mshr miss rate for WriteReq accesses
system.cpu.dcache.LoadLockedReq_mshr_miss_rate::switch_cpus.data     0.085758                       # mshr miss rate for LoadLockedReq accesses
system.cpu.dcache.LoadLockedReq_mshr_miss_rate::total     0.085758                       # mshr miss rate for LoadLockedReq accesses
system.cpu.dcache.StoreCondReq_mshr_miss_rate::switch_cpus.data     0.000421                       # mshr miss rate for StoreCondReq accesses
system.cpu.dcache.StoreCondReq_mshr_miss_rate::total     0.000421                       # mshr miss rate for StoreCondReq accesses
system.cpu.dcache.demand_mshr_miss_rate::switch_cpus.data     0.062969                       # mshr miss rate for demand accesses
system.cpu.dcache.demand_mshr_miss_rate::total     0.062969                       # mshr miss rate for demand accesses
system.cpu.dcache.overall_mshr_miss_rate::switch_cpus.data     0.062969                       # mshr miss rate for overall accesses
system.cpu.dcache.overall_mshr_miss_rate::total     0.062969                       # mshr miss rate for overall accesses
system.cpu.dcache.ReadReq_avg_mshr_miss_latency::switch_cpus.data 71588.372981                       # average ReadReq mshr miss latency
system.cpu.dcache.ReadReq_avg_mshr_miss_latency::total 71588.372981                       # average ReadReq mshr miss latency
system.cpu.dcache.WriteReq_avg_mshr_miss_latency::switch_cpus.data 85871.114484                       # average WriteReq mshr miss latency
system.cpu.dcache.WriteReq_avg_mshr_miss_latency::total 85871.114484                       # average WriteReq mshr miss latency
system.cpu.dcache.LoadLockedReq_avg_mshr_miss_latency::switch_cpus.data 68300.223214                       # average LoadLockedReq mshr miss latency
system.cpu.dcache.LoadLockedReq_avg_mshr_miss_latency::total 68300.223214                       # average LoadLockedReq mshr miss latency
system.cpu.dcache.StoreCondReq_avg_mshr_miss_latency::switch_cpus.data        32499                       # average StoreCondReq mshr miss latency
system.cpu.dcache.StoreCondReq_avg_mshr_miss_latency::total        32499                       # average StoreCondReq mshr miss latency
system.cpu.dcache.demand_avg_mshr_miss_latency::switch_cpus.data 78774.792220                       # average overall mshr miss latency
system.cpu.dcache.demand_avg_mshr_miss_latency::total 78774.792220                       # average overall mshr miss latency
system.cpu.dcache.overall_avg_mshr_miss_latency::switch_cpus.data 78774.792220                       # average overall mshr miss latency
system.cpu.dcache.overall_avg_mshr_miss_latency::total 78774.792220                       # average overall mshr miss latency
system.cpu.dcache.WriteReq_avg_mshr_uncacheable_latency::switch_cpus.data       223500                       # average WriteReq mshr uncacheable latency
system.cpu.dcache.WriteReq_avg_mshr_uncacheable_latency::total       223500                       # average WriteReq mshr uncacheable latency
system.cpu.dcache.overall_avg_mshr_uncacheable_latency::switch_cpus.data       223500                       # average overall mshr uncacheable latency
system.cpu.dcache.overall_avg_mshr_uncacheable_latency::total       223500                       # average overall mshr uncacheable latency
system.cpu.dcache.no_allocate_misses                0                       # Number of misses that were no-allocate
system.cpu.icache.tags.replacements             10490                       # number of replacements
system.cpu.icache.tags.tagsinuse           511.759427                       # Cycle average of tags in use
system.cpu.icache.tags.total_refs              362751                       # Total number of references to valid blocks.
system.cpu.icache.tags.sampled_refs             10490                       # Sample count of references to valid blocks.
system.cpu.icache.tags.avg_refs             34.580648                       # Average number of references to valid blocks.
system.cpu.icache.tags.warmup_cycle                 0                       # Cycle when the warmup percentage was hit.
system.cpu.icache.tags.occ_blocks::cpu.inst    21.037670                       # Average occupied blocks per requestor
system.cpu.icache.tags.occ_blocks::switch_cpus.inst   490.721757                       # Average occupied blocks per requestor
system.cpu.icache.tags.occ_percent::cpu.inst     0.041089                       # Average percentage of cache occupancy
system.cpu.icache.tags.occ_percent::switch_cpus.inst     0.958441                       # Average percentage of cache occupancy
system.cpu.icache.tags.occ_percent::total     0.999530                       # Average percentage of cache occupancy
system.cpu.icache.tags.occ_task_id_blocks::1024          511                       # Occupied blocks per task id
system.cpu.icache.tags.age_task_id_blocks_1024::0           62                       # Occupied blocks per task id
system.cpu.icache.tags.age_task_id_blocks_1024::1           20                       # Occupied blocks per task id
system.cpu.icache.tags.age_task_id_blocks_1024::2          428                       # Occupied blocks per task id
system.cpu.icache.tags.age_task_id_blocks_1024::3            1                       # Occupied blocks per task id
system.cpu.icache.tags.occ_task_id_percent::1024     0.998047                       # Percentage of cache occupancy per task id
system.cpu.icache.tags.tag_accesses            340436                       # Number of tag accesses
system.cpu.icache.tags.data_accesses           340436                       # Number of data accesses
system.cpu.icache.ReadReq_hits::switch_cpus.inst       152455                       # number of ReadReq hits
system.cpu.icache.ReadReq_hits::total          152455                       # number of ReadReq hits
system.cpu.icache.demand_hits::switch_cpus.inst       152455                       # number of demand (read+write) hits
system.cpu.icache.demand_hits::total           152455                       # number of demand (read+write) hits
system.cpu.icache.overall_hits::switch_cpus.inst       152455                       # number of overall hits
system.cpu.icache.overall_hits::total          152455                       # number of overall hits
system.cpu.icache.ReadReq_misses::switch_cpus.inst        12513                       # number of ReadReq misses
system.cpu.icache.ReadReq_misses::total         12513                       # number of ReadReq misses
system.cpu.icache.demand_misses::switch_cpus.inst        12513                       # number of demand (read+write) misses
system.cpu.icache.demand_misses::total          12513                       # number of demand (read+write) misses
system.cpu.icache.overall_misses::switch_cpus.inst        12513                       # number of overall misses
system.cpu.icache.overall_misses::total         12513                       # number of overall misses
system.cpu.icache.ReadReq_miss_latency::switch_cpus.inst    772347499                       # number of ReadReq miss cycles
system.cpu.icache.ReadReq_miss_latency::total    772347499                       # number of ReadReq miss cycles
system.cpu.icache.demand_miss_latency::switch_cpus.inst    772347499                       # number of demand (read+write) miss cycles
system.cpu.icache.demand_miss_latency::total    772347499                       # number of demand (read+write) miss cycles
system.cpu.icache.overall_miss_latency::switch_cpus.inst    772347499                       # number of overall miss cycles
system.cpu.icache.overall_miss_latency::total    772347499                       # number of overall miss cycles
system.cpu.icache.ReadReq_accesses::switch_cpus.inst       164968                       # number of ReadReq accesses(hits+misses)
system.cpu.icache.ReadReq_accesses::total       164968                       # number of ReadReq accesses(hits+misses)
system.cpu.icache.demand_accesses::switch_cpus.inst       164968                       # number of demand (read+write) accesses
system.cpu.icache.demand_accesses::total       164968                       # number of demand (read+write) accesses
system.cpu.icache.overall_accesses::switch_cpus.inst       164968                       # number of overall (read+write) accesses
system.cpu.icache.overall_accesses::total       164968                       # number of overall (read+write) accesses
system.cpu.icache.ReadReq_miss_rate::switch_cpus.inst     0.075851                       # miss rate for ReadReq accesses
system.cpu.icache.ReadReq_miss_rate::total     0.075851                       # miss rate for ReadReq accesses
system.cpu.icache.demand_miss_rate::switch_cpus.inst     0.075851                       # miss rate for demand accesses
system.cpu.icache.demand_miss_rate::total     0.075851                       # miss rate for demand accesses
system.cpu.icache.overall_miss_rate::switch_cpus.inst     0.075851                       # miss rate for overall accesses
system.cpu.icache.overall_miss_rate::total     0.075851                       # miss rate for overall accesses
system.cpu.icache.ReadReq_avg_miss_latency::switch_cpus.inst 61723.607368                       # average ReadReq miss latency
system.cpu.icache.ReadReq_avg_miss_latency::total 61723.607368                       # average ReadReq miss latency
system.cpu.icache.demand_avg_miss_latency::switch_cpus.inst 61723.607368                       # average overall miss latency
system.cpu.icache.demand_avg_miss_latency::total 61723.607368                       # average overall miss latency
system.cpu.icache.overall_avg_miss_latency::switch_cpus.inst 61723.607368                       # average overall miss latency
system.cpu.icache.overall_avg_miss_latency::total 61723.607368                       # average overall miss latency
system.cpu.icache.blocked_cycles::no_mshrs         2294                       # number of cycles access was blocked
system.cpu.icache.blocked_cycles::no_targets            0                       # number of cycles access was blocked
system.cpu.icache.blocked::no_mshrs                39                       # number of cycles access was blocked
system.cpu.icache.blocked::no_targets               0                       # number of cycles access was blocked
system.cpu.icache.avg_blocked_cycles::no_mshrs    58.820513                       # average number of cycles each access was blocked
system.cpu.icache.avg_blocked_cycles::no_targets          nan                       # average number of cycles each access was blocked
system.cpu.icache.fast_writes                       0                       # number of fast writes performed
system.cpu.icache.cache_copies                      0                       # number of cache copies performed
system.cpu.icache.ReadReq_mshr_hits::switch_cpus.inst         2013                       # number of ReadReq MSHR hits
system.cpu.icache.ReadReq_mshr_hits::total         2013                       # number of ReadReq MSHR hits
system.cpu.icache.demand_mshr_hits::switch_cpus.inst         2013                       # number of demand (read+write) MSHR hits
system.cpu.icache.demand_mshr_hits::total         2013                       # number of demand (read+write) MSHR hits
system.cpu.icache.overall_mshr_hits::switch_cpus.inst         2013                       # number of overall MSHR hits
system.cpu.icache.overall_mshr_hits::total         2013                       # number of overall MSHR hits
[...]
system.switch_cpus.iew.wb_producers            959977                       # num instructions producing a value
system.switch_cpus.iew.wb_consumers           1300881                       # num instructions consuming a value
system.switch_cpus.iew.wb_penalized                 0                       # number of instrctions required to write to 'other' IQ
system.switch_cpus.iew.wb_rate               0.425873                       # insts written-back per cycle
system.switch_cpus.iew.wb_fanout             0.737944                       # average fanout of values written-back
system.switch_cpus.iew.wb_penalized_rate            0                       # fraction of instructions written-back that wrote to 'other' IQ
system.switch_cpus.commit.commitSquashedInsts       350541                       # The number of squashed insts skipped by commit
system.switch_cpus.commit.commitNonSpecStalls        27668                       # The number of times commit has been forced to stall to communicate backwards
system.switch_cpus.commit.branchMispredicts        18305                       # The number of times a branch was mispredicted
system.switch_cpus.commit.committed_per_cycle::samples      3331974                       # Number of insts commited each cycle
system.switch_cpus.commit.committed_per_cycle::mean     0.520442                       # Number of insts commited each cycle
system.switch_cpus.commit.committed_per_cycle::stdev     1.584802                       # Number of insts commited each cycle
system.switch_cpus.commit.committed_per_cycle::underflows            0      0.00%      0.00% # Number of insts commited each cycle
system.switch_cpus.commit.committed_per_cycle::0      2775718     83.31%     83.31% # Number of insts commited each cycle
system.switch_cpus.commit.committed_per_cycle::1       242457      7.28%     90.58% # Number of insts commited each cycle
system.switch_cpus.commit.committed_per_cycle::2        95598      2.87%     93.45% # Number of insts commited each cycle
system.switch_cpus.commit.committed_per_cycle::3        37435      1.12%     94.57% # Number of insts commited each cycle
system.switch_cpus.commit.committed_per_cycle::4        38331      1.15%     95.73% # Number of insts commited each cycle
system.switch_cpus.commit.committed_per_cycle::5        20473      0.61%     96.34% # Number of insts commited each cycle
system.switch_cpus.commit.committed_per_cycle::6        13645      0.41%     96.75% # Number of insts commited each cycle
system.switch_cpus.commit.committed_per_cycle::7        15955      0.48%     97.23% # Number of insts commited each cycle
system.switch_cpus.commit.committed_per_cycle::8        92362      2.77%    100.00% # Number of insts commited each cycle
system.switch_cpus.commit.committed_per_cycle::overflows            0      0.00%    100.00% # Number of insts commited each cycle
system.switch_cpus.commit.committed_per_cycle::min_value            0                       # Number of insts commited each cycle
system.switch_cpus.commit.committed_per_cycle::max_value            8                       # Number of insts commited each cycle
system.switch_cpus.commit.committed_per_cycle::total      3331974                       # Number of insts commited each cycle
system.switch_cpus.commit.committedInsts      1734098                       # Number of instructions committed
system.switch_cpus.commit.committedOps        1734098                       # Number of ops (including micro ops) committed
system.switch_cpus.commit.swp_count                 0                       # Number of s/w prefetches committed
system.switch_cpus.commit.refs                 563561                       # Number of memory references committed
system.switch_cpus.commit.loads                326639                       # Number of loads committed
system.switch_cpus.commit.membars               13611                       # Number of memory barriers committed
system.switch_cpus.commit.branches             277915                       # Number of branches committed
system.switch_cpus.commit.fp_insts               4419                       # Number of committed floating point instructions.
system.switch_cpus.commit.int_insts           1665565                       # Number of committed integer instructions.
system.switch_cpus.commit.function_calls        25389                       # Number of function calls committed.
system.switch_cpus.commit.op_class_0::No_OpClass        33479      1.93%      1.93% # Class of committed instruction
system.switch_cpus.commit.op_class_0::IntAlu      1088586     62.78%     64.71% # Class of committed instruction
system.switch_cpus.commit.op_class_0::IntMult         2159      0.12%     64.83% # Class of committed instruction
system.switch_cpus.commit.op_class_0::IntDiv            0      0.00%     64.83% # Class of committed instruction
system.switch_cpus.commit.op_class_0::FloatAdd         1305      0.08%     64.91% # Class of committed instruction
system.switch_cpus.commit.op_class_0::FloatCmp            1      0.00%     64.91% # Class of committed instruction
system.switch_cpus.commit.op_class_0::FloatCvt            5      0.00%     64.91% # Class of committed instruction
system.switch_cpus.commit.op_class_0::FloatMult            1      0.00%     64.91% # Class of committed instruction
system.switch_cpus.commit.op_class_0::FloatDiv          246      0.01%     64.92% # Class of committed instruction
system.switch_cpus.commit.op_class_0::FloatSqrt            0      0.00%     64.92% # Class of committed instruction
system.switch_cpus.commit.op_class_0::SimdAdd            0      0.00%     64.92% # Class of committed instruction
system.switch_cpus.commit.op_class_0::SimdAddAcc            0      0.00%     64.92% # Class of committed instruction
system.switch_cpus.commit.op_class_0::SimdAlu            0      0.00%     64.92% # Class of committed instruction
system.switch_cpus.commit.op_class_0::SimdCmp            0      0.00%     64.92% # Class of committed instruction
system.switch_cpus.commit.op_class_0::SimdCvt            0      0.00%     64.92% # Class of committed instruction
system.switch_cpus.commit.op_class_0::SimdMisc            0      0.00%     64.92% # Class of committed instruction
system.switch_cpus.commit.op_class_0::SimdMult            0      0.00%     64.92% # Class of committed instruction
system.switch_cpus.commit.op_class_0::SimdMultAcc            0      0.00%     64.92% # Class of committed instruction
system.switch_cpus.commit.op_class_0::SimdShift            0      0.00%     64.92% # Class of committed instruction
system.switch_cpus.commit.op_class_0::SimdShiftAcc            0      0.00%     64.92% # Class of committed instruction
system.switch_cpus.commit.op_class_0::SimdSqrt            0      0.00%     64.92% # Class of committed instruction
system.switch_cpus.commit.op_class_0::SimdFloatAdd            0      0.00%     64.92% # Class of committed instruction
system.switch_cpus.commit.op_class_0::SimdFloatAlu            0      0.00%     64.92% # Class of committed instruction
system.switch_cpus.commit.op_class_0::SimdFloatCmp            0      0.00%     64.92% # Class of committed instruction
system.switch_cpus.commit.op_class_0::SimdFloatCvt            0      0.00%     64.92% # Class of committed instruction
system.switch_cpus.commit.op_class_0::SimdFloatDiv            0      0.00%     64.92% # Class of committed instruction
system.switch_cpus.commit.op_class_0::SimdFloatMisc            0      0.00%     64.92% # Class of committed instruction
system.switch_cpus.commit.op_class_0::SimdFloatMult            0      0.00%     64.92% # Class of committed instruction
system.switch_cpus.commit.op_class_0::SimdFloatMultAcc            0      0.00%     64.92% # Class of committed instruction
system.switch_cpus.commit.op_class_0::SimdFloatSqrt            0      0.00%     64.92% # Class of committed instruction
system.switch_cpus.commit.op_class_0::MemRead       340250     19.62%     84.54% # Class of committed instruction
system.switch_cpus.commit.op_class_0::MemWrite       237285     13.68%     98.22% # Class of committed instruction
system.switch_cpus.commit.op_class_0::IprAccess        30781      1.78%    100.00% # Class of committed instruction
system.switch_cpus.commit.op_class_0::InstPrefetch            0      0.00%    100.00% # Class of committed instruction
system.switch_cpus.commit.op_class_0::total      1734098                       # Class of committed instruction
system.switch_cpus.commit.bw_lim_events         92362                       # number cycles where commit BW limit reached
system.switch_cpus.rob.rob_reads              5301299                       # The number of ROB reads
system.switch_cpus.rob.rob_writes             4229966                       # The number of ROB writes
system.switch_cpus.timesIdled                   10525                       # Number of times that the entire CPU went into an idle state and unscheduled itself
system.switch_cpus.idleCycles                  993709                       # Total number of cycles that the CPU has spent unscheduled due to idling
system.switch_cpus.committedInsts             1701113                       # Number of Instructions Simulated
system.switch_cpus.committedOps               1701113                       # Number of Ops (including micro ops) Simulated
system.switch_cpus.cpi                       2.578294                       # CPI: Cycles Per Instruction
system.switch_cpus.cpi_total                 2.578294                       # CPI: Total CPI of All Threads
system.switch_cpus.ipc                       0.387853                       # IPC: Instructions Per Cycle
system.switch_cpus.ipc_total                 0.387853                       # IPC: Total IPC of All Threads
system.switch_cpus.int_regfile_reads          2498903                       # number of integer regfile reads
system.switch_cpus.int_regfile_writes         1317556                       # number of integer regfile writes
system.switch_cpus.fp_regfile_reads              3071                       # number of floating regfile reads
system.switch_cpus.fp_regfile_writes             2786                       # number of floating regfile writes
system.switch_cpus.misc_regfile_reads           53185                       # number of misc regfile reads
system.switch_cpus.misc_regfile_writes          35502                       # number of misc regfile writes
system.tol2bus.trans_dist::ReadReq              30564                       # Transaction distribution
system.tol2bus.trans_dist::ReadResp             30565                       # Transaction distribution
system.tol2bus.trans_dist::WriteReq               134                       # Transaction distribution
system.tol2bus.trans_dist::WriteResp              134                       # Transaction distribution
system.tol2bus.trans_dist::Writeback            15062                       # Transaction distribution
system.tol2bus.trans_dist::UpgradeReq               5                       # Transaction distribution
system.tol2bus.trans_dist::SCUpgradeReq             1                       # Transaction distribution
system.tol2bus.trans_dist::UpgradeResp              6                       # Transaction distribution
system.tol2bus.trans_dist::ReadExReq             9905                       # Transaction distribution
system.tol2bus.trans_dist::ReadExResp            9905                       # Transaction distribution
system.tol2bus.pkt_count_system.cpu.icache.mem_side::system.l2.cpu_side        29205                       # Packet count per connected master and slave (bytes)
system.tol2bus.pkt_count_system.cpu.dcache.mem_side::system.l2.cpu_side        67070                       # Packet count per connected master and slave (bytes)
system.tol2bus.pkt_count::total                 96275                       # Packet count per connected master and slave (bytes)
system.tol2bus.pkt_size_system.cpu.icache.mem_side::system.l2.cpu_side       934400                       # Cumulative packet size per connected master and slave (bytes)
system.tol2bus.pkt_size_system.cpu.dcache.mem_side::system.l2.cpu_side      2600624                       # Cumulative packet size per connected master and slave (bytes)
system.tol2bus.pkt_size::total                3535024                       # Cumulative packet size per connected master and slave (bytes)
system.tol2bus.snoops                               6                       # Total snoops (count)
system.tol2bus.snoop_fanout::samples            55671                       # Request fanout histogram
system.tol2bus.snoop_fanout::mean                   1                       # Request fanout histogram
system.tol2bus.snoop_fanout::stdev                  0                       # Request fanout histogram
system.tol2bus.snoop_fanout::underflows             0      0.00%      0.00% # Request fanout histogram
system.tol2bus.snoop_fanout::0                      0      0.00%      0.00% # Request fanout histogram
system.tol2bus.snoop_fanout::1                  55671    100.00%    100.00% # Request fanout histogram
system.tol2bus.snoop_fanout::2                      0      0.00%    100.00% # Request fanout histogram
system.tol2bus.snoop_fanout::overflows              0      0.00%    100.00% # Request fanout histogram
system.tol2bus.snoop_fanout::min_value              1                       # Request fanout histogram
system.tol2bus.snoop_fanout::max_value              1                       # Request fanout histogram
system.tol2bus.snoop_fanout::total              55671                       # Request fanout histogram
system.tol2bus.reqLayer0.occupancy           42964500                       # Layer occupancy (ticks)
system.tol2bus.reqLayer0.utilization              2.0                       # Layer utilization (%)
system.tol2bus.respLayer0.occupancy          23857994                       # Layer occupancy (ticks)
system.tol2bus.respLayer0.utilization             1.1                       # Layer utilization (%)
system.tol2bus.respLayer1.occupancy          42372000                       # Layer occupancy (ticks)
system.tol2bus.respLayer1.utilization             1.9                       # Layer utilization (%)
system.tsunami.ethernet.descDMAReads                0                       # Number of descriptors the device read w/ DMA
system.tsunami.ethernet.descDMAWrites               0                       # Number of descriptors the device wrote w/ DMA
system.tsunami.ethernet.descDmaReadBytes            0                       # number of descriptor bytes read w/ DMA
system.tsunami.ethernet.descDmaWriteBytes            0                       # number of descriptor bytes write w/ DMA
system.tsunami.ethernet.postedSwi                   0                       # number of software interrupts posted to CPU
system.tsunami.ethernet.coalescedSwi              nan                       # average number of Swi's coalesced into each post
system.tsunami.ethernet.totalSwi                    0                       # total number of Swi written to ISR
system.tsunami.ethernet.postedRxIdle                0                       # number of rxIdle interrupts posted to CPU
system.tsunami.ethernet.coalescedRxIdle           nan                       # average number of RxIdle's coalesced into each post
system.tsunami.ethernet.totalRxIdle                 0                       # total number of RxIdle written to ISR
system.tsunami.ethernet.postedRxOk                  0                       # number of RxOk interrupts posted to CPU
system.tsunami.ethernet.coalescedRxOk             nan                       # average number of RxOk's coalesced into each post
system.tsunami.ethernet.totalRxOk                   0                       # total number of RxOk written to ISR
system.tsunami.ethernet.postedRxDesc                0                       # number of RxDesc interrupts posted to CPU
system.tsunami.ethernet.coalescedRxDesc           nan                       # average number of RxDesc's coalesced into each post
system.tsunami.ethernet.totalRxDesc                 0                       # total number of RxDesc written to ISR
system.tsunami.ethernet.postedTxOk                  0                       # number of TxOk interrupts posted to CPU
system.tsunami.ethernet.coalescedTxOk             nan                       # average number of TxOk's coalesced into each post
system.tsunami.ethernet.totalTxOk                   0                       # total number of TxOk written to ISR
system.tsunami.ethernet.postedTxIdle                0                       # number of TxIdle interrupts posted to CPU
system.tsunami.ethernet.coalescedTxIdle           nan                       # average number of TxIdle's coalesced into each post
system.tsunami.ethernet.totalTxIdle                 0                       # total number of TxIdle written to ISR
system.tsunami.ethernet.postedTxDesc                0                       # number of TxDesc interrupts posted to CPU
system.tsunami.ethernet.coalescedTxDesc           nan                       # average number of TxDesc's coalesced into each post
system.tsunami.ethernet.totalTxDesc                 0                       # total number of TxDesc written to ISR
system.tsunami.ethernet.postedRxOrn                 0                       # number of RxOrn posted to CPU
system.tsunami.ethernet.coalescedRxOrn            nan                       # average number of RxOrn's coalesced into each post
system.tsunami.ethernet.totalRxOrn                  0                       # total number of RxOrn written to ISR
system.tsunami.ethernet.coalescedTotal            nan                       # average number of interrupts coalesced into each post
system.tsunami.ethernet.postedInterrupts            0                       # number of posts to CPU
system.tsunami.ethernet.droppedPackets              0                       # number of packets dropped
system.switch_cpus.kern.inst.arm                    0                       # number of arm instructions executed
system.switch_cpus.kern.inst.quiesce                0                       # number of quiesce instructions executed
system.switch_cpus.kern.inst.hwrei                  0                       # number of hwrei instructions executed
system.switch_cpus.kern.mode_switch::kernel            0                       # number of protection mode switches
system.switch_cpus.kern.mode_switch::user            0                       # number of protection mode switches
system.switch_cpus.kern.mode_switch::idle            0                       # number of protection mode switches
system.switch_cpus.kern.mode_good::kernel            0                      
system.switch_cpus.kern.mode_good::user             0                      
system.switch_cpus.kern.mode_good::idle             0                      
system.switch_cpus.kern.mode_switch_good::kernel          nan                       # fraction of useful protection mode switches
system.switch_cpus.kern.mode_switch_good::user          nan                       # fraction of useful protection mode switches
system.switch_cpus.kern.mode_switch_good::idle          nan                       # fraction of useful protection mode switches
system.switch_cpus.kern.mode_switch_good::total          nan                       # fraction of useful protection mode switches
system.switch_cpus.kern.mode_ticks::kernel            0                       # number of ticks spent at the given mode
system.switch_cpus.kern.mode_ticks::user            0                       # number of ticks spent at the given mode
system.switch_cpus.kern.mode_ticks::idle            0                       # number of ticks spent at the given mode
system.switch_cpus.kern.swap_context                0                       # number of times the context was actually changed

---------- End Simulation Statistics   ----------
