
---------- Begin Simulation Statistics ----------
sim_seconds                                  0.001186                       # Number of seconds simulated
sim_ticks                                  1186029000                       # Number of ticks simulated
final_tick                               2262438755000                       # Number of ticks from beginning of simulation (restored from checkpoints and never reset)
sim_freq                                 1000000000000                       # Frequency of simulated ticks
host_inst_rate                               32139125                       # Simulator instruction rate (inst/s)
host_op_rate                                 32139054                       # Simulator op (including micro ops) rate (op/s)
host_tick_rate                              323336154                       # Simulator tick rate (ticks/s)
host_mem_usage                                 741904                       # Number of bytes of host memory used
host_seconds                                     3.67                       # Real time elapsed on the host
sim_insts                                   117889003                       # Number of instructions simulated
sim_ops                                     117889003                       # Number of ops (including micro ops) simulated
system.voltage_domain.voltage                       1                       # Voltage in Volts
system.clk_domain.clock                          1000                       # Clock period in ticks
system.mem_ctrls.bytes_read::switch_cpus0.inst       180288                       # Number of bytes read from this memory
system.mem_ctrls.bytes_read::switch_cpus0.data       245120                       # Number of bytes read from this memory
system.mem_ctrls.bytes_read::switch_cpus1.inst        73152                       # Number of bytes read from this memory
system.mem_ctrls.bytes_read::switch_cpus1.data       129216                       # Number of bytes read from this memory
system.mem_ctrls.bytes_read::switch_cpus2.inst         3968                       # Number of bytes read from this memory
system.mem_ctrls.bytes_read::switch_cpus2.data         2368                       # Number of bytes read from this memory
system.mem_ctrls.bytes_read::switch_cpus3.inst       241792                       # Number of bytes read from this memory
system.mem_ctrls.bytes_read::switch_cpus3.data       693632                       # Number of bytes read from this memory
system.mem_ctrls.bytes_read::total            1569536                       # Number of bytes read from this memory
system.mem_ctrls.bytes_inst_read::switch_cpus0.inst       180288                       # Number of instructions bytes read from this memory
system.mem_ctrls.bytes_inst_read::switch_cpus1.inst        73152                       # Number of instructions bytes read from this memory
system.mem_ctrls.bytes_inst_read::switch_cpus2.inst         3968                       # Number of instructions bytes read from this memory
system.mem_ctrls.bytes_inst_read::switch_cpus3.inst       241792                       # Number of instructions bytes read from this memory
system.mem_ctrls.bytes_inst_read::total        499200                       # Number of instructions bytes read from this memory
system.mem_ctrls.bytes_written::writebacks       659776                       # Number of bytes written to this memory
system.mem_ctrls.bytes_written::total          659776                       # Number of bytes written to this memory
system.mem_ctrls.num_reads::switch_cpus0.inst         2817                       # Number of read requests responded to by this memory
system.mem_ctrls.num_reads::switch_cpus0.data         3830                       # Number of read requests responded to by this memory
system.mem_ctrls.num_reads::switch_cpus1.inst         1143                       # Number of read requests responded to by this memory
system.mem_ctrls.num_reads::switch_cpus1.data         2019                       # Number of read requests responded to by this memory
system.mem_ctrls.num_reads::switch_cpus2.inst           62                       # Number of read requests responded to by this memory
system.mem_ctrls.num_reads::switch_cpus2.data           37                       # Number of read requests responded to by this memory
system.mem_ctrls.num_reads::switch_cpus3.inst         3778                       # Number of read requests responded to by this memory
system.mem_ctrls.num_reads::switch_cpus3.data        10838                       # Number of read requests responded to by this memory
system.mem_ctrls.num_reads::total               24524                       # Number of read requests responded to by this memory
system.mem_ctrls.num_writes::writebacks         10309                       # Number of write requests responded to by this memory
system.mem_ctrls.num_writes::total              10309                       # Number of write requests responded to by this memory
system.mem_ctrls.bw_read::switch_cpus0.inst    152009774                       # Total read bandwidth from this memory (bytes/s)
system.mem_ctrls.bw_read::switch_cpus0.data    206672855                       # Total read bandwidth from this memory (bytes/s)
system.mem_ctrls.bw_read::switch_cpus1.inst     61678087                       # Total read bandwidth from this memory (bytes/s)
system.mem_ctrls.bw_read::switch_cpus1.data    108948432                       # Total read bandwidth from this memory (bytes/s)
system.mem_ctrls.bw_read::switch_cpus2.inst      3345618                       # Total read bandwidth from this memory (bytes/s)
system.mem_ctrls.bw_read::switch_cpus2.data      1996578                       # Total read bandwidth from this memory (bytes/s)
system.mem_ctrls.bw_read::switch_cpus3.inst    203866853                       # Total read bandwidth from this memory (bytes/s)
system.mem_ctrls.bw_read::switch_cpus3.data    584835615                       # Total read bandwidth from this memory (bytes/s)
system.mem_ctrls.bw_read::total            1323353813                       # Total read bandwidth from this memory (bytes/s)
system.mem_ctrls.bw_inst_read::switch_cpus0.inst    152009774                       # Instruction read bandwidth from this memory (bytes/s)
system.mem_ctrls.bw_inst_read::switch_cpus1.inst     61678087                       # Instruction read bandwidth from this memory (bytes/s)
system.mem_ctrls.bw_inst_read::switch_cpus2.inst      3345618                       # Instruction read bandwidth from this memory (bytes/s)
system.mem_ctrls.bw_inst_read::switch_cpus3.inst    203866853                       # Instruction read bandwidth from this memory (bytes/s)
system.mem_ctrls.bw_inst_read::total        420900332                       # Instruction read bandwidth from this memory (bytes/s)
system.mem_ctrls.bw_write::writebacks       556289939                       # Write bandwidth from this memory (bytes/s)
system.mem_ctrls.bw_write::total            556289939                       # Write bandwidth from this memory (bytes/s)
system.mem_ctrls.bw_total::writebacks       556289939                       # Total bandwidth to/from this memory (bytes/s)
system.mem_ctrls.bw_total::switch_cpus0.inst    152009774                       # Total bandwidth to/from this memory (bytes/s)
system.mem_ctrls.bw_total::switch_cpus0.data    206672855                       # Total bandwidth to/from this memory (bytes/s)
system.mem_ctrls.bw_total::switch_cpus1.inst     61678087                       # Total bandwidth to/from this memory (bytes/s)
system.mem_ctrls.bw_total::switch_cpus1.data    108948432                       # Total bandwidth to/from this memory (bytes/s)
system.mem_ctrls.bw_total::switch_cpus2.inst      3345618                       # Total bandwidth to/from this memory (bytes/s)
system.mem_ctrls.bw_total::switch_cpus2.data      1996578                       # Total bandwidth to/from this memory (bytes/s)
system.mem_ctrls.bw_total::switch_cpus3.inst    203866853                       # Total bandwidth to/from this memory (bytes/s)
system.mem_ctrls.bw_total::switch_cpus3.data    584835615                       # Total bandwidth to/from this memory (bytes/s)
system.mem_ctrls.bw_total::total           1879643752                       # Total bandwidth to/from this memory (bytes/s)
system.mem_ctrls.readReqs                       24524                       # Number of read requests accepted
system.mem_ctrls.writeReqs                      10309                       # Number of write requests accepted
system.mem_ctrls.readBursts                     24524                       # Number of DRAM read bursts, including those serviced by the write queue
system.mem_ctrls.writeBursts                    10309                       # Number of DRAM write bursts, including those merged in the write queue
system.mem_ctrls.bytesReadDRAM                1565760                       # Total number of bytes read from DRAM
system.mem_ctrls.bytesReadWrQ                    3776                       # Total number of bytes read from write queue
system.mem_ctrls.bytesWritten                  658048                       # Total number of bytes written to DRAM
system.mem_ctrls.bytesReadSys                 1569536                       # Total read bytes from the system interface side
system.mem_ctrls.bytesWrittenSys               659776                       # Total written bytes from the system interface side
system.mem_ctrls.servicedByWrQ                     59                       # Number of DRAM read bursts serviced by the write queue
system.mem_ctrls.mergedWrBursts                     0                       # Number of DRAM write bursts merged with an existing one
system.mem_ctrls.neitherReadNorWriteReqs           60                       # Number of requests that are neither read nor write
system.mem_ctrls.perBankRdBursts::0              1140                       # Per bank write bursts
system.mem_ctrls.perBankRdBursts::1              1206                       # Per bank write bursts
system.mem_ctrls.perBankRdBursts::2              1558                       # Per bank write bursts
system.mem_ctrls.perBankRdBursts::3               982                       # Per bank write bursts
system.mem_ctrls.perBankRdBursts::4              1292                       # Per bank write bursts
system.mem_ctrls.perBankRdBursts::5              1966                       # Per bank write bursts
system.mem_ctrls.perBankRdBursts::6              1422                       # Per bank write bursts
system.mem_ctrls.perBankRdBursts::7              1198                       # Per bank write bursts
system.mem_ctrls.perBankRdBursts::8              1654                       # Per bank write bursts
system.mem_ctrls.perBankRdBursts::9              1931                       # Per bank write bursts
system.mem_ctrls.perBankRdBursts::10             1398                       # Per bank write bursts
system.mem_ctrls.perBankRdBursts::11             1296                       # Per bank write bursts
system.mem_ctrls.perBankRdBursts::12             1749                       # Per bank write bursts
system.mem_ctrls.perBankRdBursts::13             2435                       # Per bank write bursts
system.mem_ctrls.perBankRdBursts::14             1701                       # Per bank write bursts
system.mem_ctrls.perBankRdBursts::15             1537                       # Per bank write bursts
system.mem_ctrls.perBankWrBursts::0               419                       # Per bank write bursts
system.mem_ctrls.perBankWrBursts::1               628                       # Per bank write bursts
system.mem_ctrls.perBankWrBursts::2               392                       # Per bank write bursts
system.mem_ctrls.perBankWrBursts::3               199                       # Per bank write bursts
system.mem_ctrls.perBankWrBursts::4               327                       # Per bank write bursts
system.mem_ctrls.perBankWrBursts::5               802                       # Per bank write bursts
system.mem_ctrls.perBankWrBursts::6               393                       # Per bank write bursts
system.mem_ctrls.perBankWrBursts::7               298                       # Per bank write bursts
system.mem_ctrls.perBankWrBursts::8               416                       # Per bank write bursts
system.mem_ctrls.perBankWrBursts::9               592                       # Per bank write bursts
system.mem_ctrls.perBankWrBursts::10              697                       # Per bank write bursts
system.mem_ctrls.perBankWrBursts::11              758                       # Per bank write bursts
system.mem_ctrls.perBankWrBursts::12             1139                       # Per bank write bursts
system.mem_ctrls.perBankWrBursts::13             1212                       # Per bank write bursts
system.mem_ctrls.perBankWrBursts::14             1048                       # Per bank write bursts
system.mem_ctrls.perBankWrBursts::15              962                       # Per bank write bursts
system.mem_ctrls.numRdRetry                         0                       # Number of times read queue was full causing retry
system.mem_ctrls.numWrRetry                         0                       # Number of times write queue was full causing retry
system.mem_ctrls.totGap                    1185941500                       # Total gap between requests
system.mem_ctrls.readPktSize::0                     0                       # Read request sizes (log2)
system.mem_ctrls.readPktSize::1                     0                       # Read request sizes (log2)
system.mem_ctrls.readPktSize::2                     0                       # Read request sizes (log2)
system.mem_ctrls.readPktSize::3                     0                       # Read request sizes (log2)
system.mem_ctrls.readPktSize::4                     0                       # Read request sizes (log2)
system.mem_ctrls.readPktSize::5                     0                       # Read request sizes (log2)
system.mem_ctrls.readPktSize::6                 24524                       # Read request sizes (log2)
system.mem_ctrls.writePktSize::0                    0                       # Write request sizes (log2)
system.mem_ctrls.writePktSize::1                    0                       # Write request sizes (log2)
system.mem_ctrls.writePktSize::2                    0                       # Write request sizes (log2)
system.mem_ctrls.writePktSize::3                    0                       # Write request sizes (log2)
system.mem_ctrls.writePktSize::4                    0                       # Write request sizes (log2)
system.mem_ctrls.writePktSize::5                    0                       # Write request sizes (log2)
system.mem_ctrls.writePktSize::6                10309                       # Write request sizes (log2)
system.mem_ctrls.rdQLenPdf::0                   11354                       # What read queue length does an incoming req see
system.mem_ctrls.rdQLenPdf::1                    6723                       # What read queue length does an incoming req see
system.mem_ctrls.rdQLenPdf::2                    3825                       # What read queue length does an incoming req see
system.mem_ctrls.rdQLenPdf::3                    2126                       # What read queue length does an incoming req see
system.mem_ctrls.rdQLenPdf::4                     278                       # What read queue length does an incoming req see
system.mem_ctrls.rdQLenPdf::5                      97                       # What read queue length does an incoming req see
system.mem_ctrls.rdQLenPdf::6                      34                       # What read queue length does an incoming req see
system.mem_ctrls.rdQLenPdf::7                      17                       # What read queue length does an incoming req see
system.mem_ctrls.rdQLenPdf::8                       5                       # What read queue length does an incoming req see
system.mem_ctrls.rdQLenPdf::9                       2                       # What read queue length does an incoming req see
system.mem_ctrls.rdQLenPdf::10                      1                       # What read queue length does an incoming req see
system.mem_ctrls.rdQLenPdf::11                      1                       # What read queue length does an incoming req see
system.mem_ctrls.rdQLenPdf::12                      1                       # What read queue length does an incoming req see
system.mem_ctrls.rdQLenPdf::13                      1                       # What read queue length does an incoming req see
system.mem_ctrls.rdQLenPdf::14                      0                       # What read queue length does an incoming req see
system.mem_ctrls.rdQLenPdf::15                      0                       # What read queue length does an incoming req see
system.mem_ctrls.rdQLenPdf::16                      0                       # What read queue length does an incoming req see
system.mem_ctrls.rdQLenPdf::17                      0                       # What read queue length does an incoming req see
system.mem_ctrls.rdQLenPdf::18                      0                       # What read queue length does an incoming req see
system.mem_ctrls.rdQLenPdf::19                      0                       # What read queue length does an incoming req see
system.mem_ctrls.rdQLenPdf::20                      0                       # What read queue length does an incoming req see
system.mem_ctrls.rdQLenPdf::21                      0                       # What read queue length does an incoming req see
system.mem_ctrls.rdQLenPdf::22                      0                       # What read queue length does an incoming req see
system.mem_ctrls.rdQLenPdf::23                      0                       # What read queue length does an incoming req see
system.mem_ctrls.rdQLenPdf::24                      0                       # What read queue length does an incoming req see
system.mem_ctrls.rdQLenPdf::25                      0                       # What read queue length does an incoming req see
system.mem_ctrls.rdQLenPdf::26                      0                       # What read queue length does an incoming req see
system.mem_ctrls.rdQLenPdf::27                      0                       # What read queue length does an incoming req see
system.mem_ctrls.rdQLenPdf::28                      0                       # What read queue length does an incoming req see
system.mem_ctrls.rdQLenPdf::29                      0                       # What read queue length does an incoming req see
system.mem_ctrls.rdQLenPdf::30                      0                       # What read queue length does an incoming req see
system.mem_ctrls.rdQLenPdf::31                      0                       # What read queue length does an incoming req see
system.mem_ctrls.wrQLenPdf::0                       1                       # What write queue length does an incoming req see
system.mem_ctrls.wrQLenPdf::1                       1                       # What write queue length does an incoming req see
system.mem_ctrls.wrQLenPdf::2                       1                       # What write queue length does an incoming req see
system.mem_ctrls.wrQLenPdf::3                       1                       # What write queue length does an incoming req see
system.mem_ctrls.wrQLenPdf::4                       1                       # What write queue length does an incoming req see
system.mem_ctrls.wrQLenPdf::5                       1                       # What write queue length does an incoming req see
system.mem_ctrls.wrQLenPdf::6                       1                       # What write queue length does an incoming req see
system.mem_ctrls.wrQLenPdf::7                       1                       # What write queue length does an incoming req see
system.mem_ctrls.wrQLenPdf::8                       1                       # What write queue length does an incoming req see
system.mem_ctrls.wrQLenPdf::9                       1                       # What write queue length does an incoming req see
system.mem_ctrls.wrQLenPdf::10                      1                       # What write queue length does an incoming req see
system.mem_ctrls.wrQLenPdf::11                      1                       # What write queue length does an incoming req see
system.mem_ctrls.wrQLenPdf::12                      1                       # What write queue length does an incoming req see
system.mem_ctrls.wrQLenPdf::13                      1                       # What write queue length does an incoming req see
system.mem_ctrls.wrQLenPdf::14                      1                       # What write queue length does an incoming req see
system.mem_ctrls.wrQLenPdf::15                     33                       # What write queue length does an incoming req see
system.mem_ctrls.wrQLenPdf::16                     40                       # What write queue length does an incoming req see
system.mem_ctrls.wrQLenPdf::17                    278                       # What write queue length does an incoming req see
system.mem_ctrls.wrQLenPdf::18                    460                       # What write queue length does an incoming req see
system.mem_ctrls.wrQLenPdf::19                    563                       # What write queue length does an incoming req see
system.mem_ctrls.wrQLenPdf::20                    634                       # What write queue length does an incoming req see
system.mem_ctrls.wrQLenPdf::21                    678                       # What write queue length does an incoming req see
system.mem_ctrls.wrQLenPdf::22                    668                       # What write queue length does an incoming req see
system.mem_ctrls.wrQLenPdf::23                    672                       # What write queue length does an incoming req see
system.mem_ctrls.wrQLenPdf::24                    679                       # What write queue length does an incoming req see
system.mem_ctrls.wrQLenPdf::25                    686                       # What write queue length does an incoming req see
system.mem_ctrls.wrQLenPdf::26                    753                       # What write queue length does an incoming req see
system.mem_ctrls.wrQLenPdf::27                    704                       # What write queue length does an incoming req see
system.mem_ctrls.wrQLenPdf::28                    711                       # What write queue length does an incoming req see
system.mem_ctrls.wrQLenPdf::29                    734                       # What write queue length does an incoming req see
system.mem_ctrls.wrQLenPdf::30                    675                       # What write queue length does an incoming req see
system.mem_ctrls.wrQLenPdf::31                    674                       # What write queue length does an incoming req see
system.mem_ctrls.wrQLenPdf::32                    641                       # What write queue length does an incoming req see
system.mem_ctrls.wrQLenPdf::33                      6                       # What write queue length does an incoming req see
system.mem_ctrls.wrQLenPdf::34                      3                       # What write queue length does an incoming req see
system.mem_ctrls.wrQLenPdf::35                      2                       # What write queue length does an incoming req see
system.mem_ctrls.wrQLenPdf::36                      0                       # What write queue length does an incoming req see
system.mem_ctrls.wrQLenPdf::37                      0                       # What write queue length does an incoming req see
system.mem_ctrls.wrQLenPdf::38                      0                       # What write queue length does an incoming req see
system.mem_ctrls.wrQLenPdf::39                      0                       # What write queue length does an incoming req see
system.mem_ctrls.wrQLenPdf::40                      0                       # What write queue length does an incoming req see
system.mem_ctrls.wrQLenPdf::41                      0                       # What write queue length does an incoming req see
system.mem_ctrls.wrQLenPdf::42                      0                       # What write queue length does an incoming req see
system.mem_ctrls.wrQLenPdf::43                      0                       # What write queue length does an incoming req see
system.mem_ctrls.wrQLenPdf::44                      0                       # What write queue length does an incoming req see
system.mem_ctrls.wrQLenPdf::45                      0                       # What write queue length does an incoming req see
system.mem_ctrls.wrQLenPdf::46                      0                       # What write queue length does an incoming req see
system.mem_ctrls.wrQLenPdf::47                      0                       # What write queue length does an incoming req see
system.mem_ctrls.wrQLenPdf::48                      0                       # What write queue length does an incoming req see
system.mem_ctrls.wrQLenPdf::49                      0                       # What write queue length does an incoming req see
system.mem_ctrls.wrQLenPdf::50                      0                       # What write queue length does an incoming req see
system.mem_ctrls.wrQLenPdf::51                      0                       # What write queue length does an incoming req see
system.mem_ctrls.wrQLenPdf::52                      0                       # What write queue length does an incoming req see
system.mem_ctrls.wrQLenPdf::53                      0                       # What write queue length does an incoming req see
system.mem_ctrls.wrQLenPdf::54                      0                       # What write queue length does an incoming req see
system.mem_ctrls.wrQLenPdf::55                      0                       # What write queue length does an incoming req see
system.mem_ctrls.wrQLenPdf::56                      0                       # What write queue length does an incoming req see
system.mem_ctrls.wrQLenPdf::57                      0                       # What write queue length does an incoming req see
system.mem_ctrls.wrQLenPdf::58                      0                       # What write queue length does an incoming req see
system.mem_ctrls.wrQLenPdf::59                      0                       # What write queue length does an incoming req see
system.mem_ctrls.wrQLenPdf::60                      0                       # What write queue length does an incoming req see
system.mem_ctrls.wrQLenPdf::61                      0                       # What write queue length does an incoming req see
system.mem_ctrls.wrQLenPdf::62                      0                       # What write queue length does an incoming req see
system.mem_ctrls.wrQLenPdf::63                      0                       # What write queue length does an incoming req see
system.mem_ctrls.bytesPerActivate::samples         9188                       # Bytes accessed per row activation
system.mem_ctrls.bytesPerActivate::mean    241.713539                       # Bytes accessed per row activation
system.mem_ctrls.bytesPerActivate::gmean   141.864484                       # Bytes accessed per row activation
system.mem_ctrls.bytesPerActivate::stdev   293.742188                       # Bytes accessed per row activation
system.mem_ctrls.bytesPerActivate::0-127         4400     47.89%     47.89% # Bytes accessed per row activation
system.mem_ctrls.bytesPerActivate::128-255         2247     24.46%     72.34% # Bytes accessed per row activation
system.mem_ctrls.bytesPerActivate::256-383          734      7.99%     80.33% # Bytes accessed per row activation
system.mem_ctrls.bytesPerActivate::384-511          369      4.02%     84.35% # Bytes accessed per row activation
system.mem_ctrls.bytesPerActivate::512-639          244      2.66%     87.00% # Bytes accessed per row activation
system.mem_ctrls.bytesPerActivate::640-767          182      1.98%     88.99% # Bytes accessed per row activation
system.mem_ctrls.bytesPerActivate::768-895          136      1.48%     90.47% # Bytes accessed per row activation
system.mem_ctrls.bytesPerActivate::896-1023          105      1.14%     91.61% # Bytes accessed per row activation
system.mem_ctrls.bytesPerActivate::1024-1151          771      8.39%    100.00% # Bytes accessed per row activation
system.mem_ctrls.bytesPerActivate::total         9188                       # Bytes accessed per row activation
system.mem_ctrls.rdPerTurnAround::samples          637                       # Reads before turning the bus around for writes
system.mem_ctrls.rdPerTurnAround::mean      38.350078                       # Reads before turning the bus around for writes
system.mem_ctrls.rdPerTurnAround::gmean     31.568050                       # Reads before turning the bus around for writes
system.mem_ctrls.rdPerTurnAround::stdev     26.552456                       # Reads before turning the bus around for writes
system.mem_ctrls.rdPerTurnAround::8-15             38      5.97%      5.97% # Reads before turning the bus around for writes
system.mem_ctrls.rdPerTurnAround::16-23           202     31.71%     37.68% # Reads before turning the bus around for writes
system.mem_ctrls.rdPerTurnAround::24-31            93     14.60%     52.28% # Reads before turning the bus around for writes
system.mem_ctrls.rdPerTurnAround::32-39            75     11.77%     64.05% # Reads before turning the bus around for writes
system.mem_ctrls.rdPerTurnAround::40-47            61      9.58%     73.63% # Reads before turning the bus around for writes
system.mem_ctrls.rdPerTurnAround::48-55            39      6.12%     79.75% # Reads before turning the bus around for writes
system.mem_ctrls.rdPerTurnAround::56-63            37      5.81%     85.56% # Reads before turning the bus around for writes
system.mem_ctrls.rdPerTurnAround::64-71            26      4.08%     89.64% # Reads before turning the bus around for writes
system.mem_ctrls.rdPerTurnAround::72-79            15      2.35%     91.99% # Reads before turning the bus around for writes
system.mem_ctrls.rdPerTurnAround::80-87             9      1.41%     93.41% # Reads before turning the bus around for writes
system.mem_ctrls.rdPerTurnAround::88-95            10      1.57%     94.98% # Reads before turning the bus around for writes
system.mem_ctrls.rdPerTurnAround::96-103            8      1.26%     96.23% # Reads before turning the bus around for writes
system.mem_ctrls.rdPerTurnAround::104-111           12      1.88%     98.12% # Reads before turning the bus around for writes
system.mem_ctrls.rdPerTurnAround::112-119            2      0.31%     98.43% # Reads before turning the bus around for writes
system.mem_ctrls.rdPerTurnAround::120-127            2      0.31%     98.74% # Reads before turning the bus around for writes
system.mem_ctrls.rdPerTurnAround::128-135            5      0.78%     99.53% # Reads before turning the bus around for writes
system.mem_ctrls.rdPerTurnAround::136-143            2      0.31%     99.84% # Reads before turning the bus around for writes
system.mem_ctrls.rdPerTurnAround::216-223            1      0.16%    100.00% # Reads before turning the bus around for writes
system.mem_ctrls.rdPerTurnAround::total           637                       # Reads before turning the bus around for writes
system.mem_ctrls.wrPerTurnAround::samples          637                       # Writes before turning the bus around for reads
system.mem_ctrls.wrPerTurnAround::mean      16.141287                       # Writes before turning the bus around for reads
system.mem_ctrls.wrPerTurnAround::gmean     16.132689                       # Writes before turning the bus around for reads
system.mem_ctrls.wrPerTurnAround::stdev      0.551277                       # Writes before turning the bus around for reads
system.mem_ctrls.wrPerTurnAround::16              593     93.09%     93.09% # Writes before turning the bus around for reads
system.mem_ctrls.wrPerTurnAround::17                7      1.10%     94.19% # Writes before turning the bus around for reads
system.mem_ctrls.wrPerTurnAround::18               30      4.71%     98.90% # Writes before turning the bus around for reads
system.mem_ctrls.wrPerTurnAround::19                6      0.94%     99.84% # Writes before turning the bus around for reads
system.mem_ctrls.wrPerTurnAround::21                1      0.16%    100.00% # Writes before turning the bus around for reads
system.mem_ctrls.wrPerTurnAround::total           637                       # Writes before turning the bus around for reads
system.mem_ctrls.totQLat                    502234000                       # Total ticks spent queuing
system.mem_ctrls.totMemAccLat               960952750                       # Total ticks spent from burst creation until serviced by the DRAM
system.mem_ctrls.totBusLat                  122325000                       # Total ticks spent in databus transfers
system.mem_ctrls.avgQLat                     20528.67                       # Average queueing delay per DRAM burst
system.mem_ctrls.avgBusLat                    5000.00                       # Average bus latency per DRAM burst
system.mem_ctrls.avgMemAccLat                39278.67                       # Average memory access latency per DRAM burst
system.mem_ctrls.avgRdBW                      1320.17                       # Average DRAM read bandwidth in MiByte/s
system.mem_ctrls.avgWrBW                       554.83                       # Average achieved write bandwidth in MiByte/s
system.mem_ctrls.avgRdBWSys                   1323.35                       # Average system read bandwidth in MiByte/s
system.mem_ctrls.avgWrBWSys                    556.29                       # Average system write bandwidth in MiByte/s
system.mem_ctrls.peakBW                      12800.00                       # Theoretical peak bandwidth in MiByte/s
system.mem_ctrls.busUtil                        14.65                       # Data bus utilization in percentage
system.mem_ctrls.busUtilRead                    10.31                       # Data bus utilization in percentage for reads
system.mem_ctrls.busUtilWrite                    4.33                       # Data bus utilization in percentage for writes
system.mem_ctrls.avgRdQLen                       1.94                       # Average read queue length when enqueuing
system.mem_ctrls.avgWrQLen                      25.95                       # Average write queue length when enqueuing
system.mem_ctrls.readRowHits                    18227                       # Number of row buffer hits during reads
system.mem_ctrls.writeRowHits                    7319                       # Number of row buffer hits during writes
system.mem_ctrls.readRowHitRate                 74.50                       # Row buffer hit rate for reads
system.mem_ctrls.writeRowHitRate                71.00                       # Row buffer hit rate for writes
system.mem_ctrls.avgGap                      34046.49                       # Average gap between requests
system.mem_ctrls.pageHitRate                    73.46                       # Row buffer hit rate, read and write combined
system.mem_ctrls_0.actEnergy                 27306720                       # Energy for activate commands per rank (pJ)
system.mem_ctrls_0.preEnergy                 14899500                       # Energy for precharge commands per rank (pJ)
system.mem_ctrls_0.readEnergy                83826600                       # Energy for read commands per rank (pJ)
system.mem_ctrls_0.writeEnergy               22291200                       # Energy for write commands per rank (pJ)
system.mem_ctrls_0.refreshEnergy             77301120                       # Energy for refresh commands per rank (pJ)
system.mem_ctrls_0.actBackEnergy            785987820                       # Energy for active background per rank (pJ)
system.mem_ctrls_0.preBackEnergy             20799000                       # Energy for precharge background per rank (pJ)
system.mem_ctrls_0.totalEnergy             1032411960                       # Total energy per rank (pJ)
system.mem_ctrls_0.averagePower            872.138980                       # Core power per rank (mW)
system.mem_ctrls_0.memoryStateTime::IDLE     29477500                       # Time in different power states
system.mem_ctrls_0.memoryStateTime::REF      39520000                       # Time in different power states
system.mem_ctrls_0.memoryStateTime::PRE_PDN            0                       # Time in different power states
system.mem_ctrls_0.memoryStateTime::ACT    1114885000                       # Time in different power states
system.mem_ctrls_0.memoryStateTime::ACT_PDN            0                       # Time in different power states
system.mem_ctrls_1.actEnergy                 42109200                       # Energy for activate commands per rank (pJ)
system.mem_ctrls_1.preEnergy                 22976250                       # Energy for precharge commands per rank (pJ)
system.mem_ctrls_1.readEnergy               106688400                       # Energy for read commands per rank (pJ)
system.mem_ctrls_1.writeEnergy               44213040                       # Energy for write commands per rank (pJ)
system.mem_ctrls_1.refreshEnergy             77301120                       # Energy for refresh commands per rank (pJ)
system.mem_ctrls_1.actBackEnergy            791205030                       # Energy for active background per rank (pJ)
system.mem_ctrls_1.preBackEnergy             16222500                       # Energy for precharge background per rank (pJ)
system.mem_ctrls_1.totalEnergy             1100715540                       # Total energy per rank (pJ)
system.mem_ctrls_1.averagePower            929.839023                       # Core power per rank (mW)
system.mem_ctrls_1.memoryStateTime::IDLE     22162000                       # Time in different power states
system.mem_ctrls_1.memoryStateTime::REF      39520000                       # Time in different power states
system.mem_ctrls_1.memoryStateTime::PRE_PDN            0                       # Time in different power states
system.mem_ctrls_1.memoryStateTime::ACT    1122101750                       # Time in different power states
system.mem_ctrls_1.memoryStateTime::ACT_PDN            0                       # Time in different power states
system.cpu_voltage_domain.voltage                   1                       # Voltage in Volts
system.cpu_clk_domain.clock                       500                       # Clock period in ticks
system.cpu0.dtb.fetch_hits                          0                       # ITB hits
system.cpu0.dtb.fetch_misses                        0                       # ITB misses
system.cpu0.dtb.fetch_acv                           0                       # ITB acv
system.cpu0.dtb.fetch_accesses                      0                       # ITB accesses
system.cpu0.dtb.read_hits                           0                       # DTB read hits
system.cpu0.dtb.read_misses                         0                       # DTB read misses
system.cpu0.dtb.read_acv                            0                       # DTB read access violations
system.cpu0.dtb.read_accesses                       0                       # DTB read accesses
system.cpu0.dtb.write_hits                          0                       # DTB write hits
system.cpu0.dtb.write_misses                        0                       # DTB write misses
system.cpu0.dtb.write_acv                           0                       # DTB write access violations
system.cpu0.dtb.write_accesses                      0                       # DTB write accesses
system.cpu0.dtb.data_hits                           0                       # DTB hits
system.cpu0.dtb.data_misses                         0                       # DTB misses
system.cpu0.dtb.data_acv                            0                       # DTB access violations
system.cpu0.dtb.data_accesses                       0                       # DTB accesses
system.cpu0.itb.fetch_hits                          0                       # ITB hits
system.cpu0.itb.fetch_misses                        0                       # ITB misses
system.cpu0.itb.fetch_acv                           0                       # ITB acv
system.cpu0.itb.fetch_accesses                      0                       # ITB accesses
system.cpu0.itb.read_hits                           0                       # DTB read hits
system.cpu0.itb.read_misses                         0                       # DTB read misses
system.cpu0.itb.read_acv                            0                       # DTB read access violations
system.cpu0.itb.read_accesses                       0                       # DTB read accesses
system.cpu0.itb.write_hits                          0                       # DTB write hits
system.cpu0.itb.write_misses                        0                       # DTB write misses
system.cpu0.itb.write_acv                           0                       # DTB write access violations
system.cpu0.itb.write_accesses                      0                       # DTB write accesses
system.cpu0.itb.data_hits                           0                       # DTB hits
system.cpu0.itb.data_misses                         0                       # DTB misses
system.cpu0.itb.data_acv                            0                       # DTB access violations
system.cpu0.itb.data_accesses                       0                       # DTB accesses
system.cpu0.numCycles                               0                       # number of cpu cycles simulated
system.cpu0.numWorkItemsStarted                     0                       # number of work items this cpu started
system.cpu0.numWorkItemsCompleted                   0                       # number of work items this cpu completed
system.cpu0.committedInsts                          0                       # Number of instructions committed
system.cpu0.committedOps                            0                       # Number of ops (including micro ops) committed
system.cpu0.num_int_alu_accesses                    0                       # Number of integer alu accesses
system.cpu0.num_fp_alu_accesses                     0                       # Number of float alu accesses
system.cpu0.num_func_calls                          0                       # number of times a function call or return occured
system.cpu0.num_conditional_control_insts            0                       # number of instructions that are conditional controls
system.cpu0.num_int_insts                           0                       # number of integer instructions
system.cpu0.num_fp_insts                            0                       # number of float instructions
system.cpu0.num_int_register_reads                  0                       # number of times the integer registers were read
system.cpu0.num_int_register_writes                 0                       # number of times the integer registers were written
system.cpu0.num_fp_register_reads                   0                       # number of times the floating registers were read
system.cpu0.num_fp_register_writes                  0                       # number of times the floating registers were written
system.cpu0.num_mem_refs                            0                       # number of memory refs
system.cpu0.num_load_insts                          0                       # Number of load instructions
system.cpu0.num_store_insts                         0                       # Number of store instructions
system.cpu0.num_idle_cycles                         0                       # Number of idle cycles
system.cpu0.num_busy_cycles                         0                       # Number of busy cycles
system.cpu0.not_idle_fraction                       1                       # Percentage of non-idle cycles
system.cpu0.idle_fraction                           0                       # Percentage of idle cycles
system.cpu0.op_class::No_OpClass                    0                       # Class of executed instruction
system.cpu0.op_class::IntAlu                        0                       # Class of executed instruction
system.cpu0.op_class::IntMult                       0                       # Class of executed instruction
system.cpu0.op_class::IntDiv                        0                       # Class of executed instruction
system.cpu0.op_class::FloatAdd                      0                       # Class of executed instruction
system.cpu0.op_class::FloatCmp                      0                       # Class of executed instruction
system.cpu0.op_class::FloatCvt                      0                       # Class of executed instruction
system.cpu0.op_class::FloatMult                     0                       # Class of executed instruction
system.cpu0.op_class::FloatDiv                      0                       # Class of executed instruction
system.cpu0.op_class::FloatSqrt                     0                       # Class of executed instruction
system.cpu0.op_class::SimdAdd                       0                       # Class of executed instruction
system.cpu0.op_class::SimdAddAcc                    0                       # Class of executed instruction
system.cpu0.op_class::SimdAlu                       0                       # Class of executed instruction
system.cpu0.op_class::SimdCmp                       0                       # Class of executed instruction
system.cpu0.op_class::SimdCvt                       0                       # Class of executed instruction
system.cpu0.op_class::SimdMisc                      0                       # Class of executed instruction
system.cpu0.op_class::SimdMult                      0                       # Class of executed instruction
system.cpu0.op_class::SimdMultAcc                   0                       # Class of executed instruction
system.cpu0.op_class::SimdShift                     0                       # Class of executed instruction
system.cpu0.op_class::SimdShiftAcc                  0                       # Class of executed instruction
system.cpu0.op_class::SimdSqrt                      0                       # Class of executed instruction
system.cpu0.op_class::SimdFloatAdd                  0                       # Class of executed instruction
system.cpu0.op_class::SimdFloatAlu                  0                       # Class of executed instruction
system.cpu0.op_class::SimdFloatCmp                  0                       # Class of executed instruction
system.cpu0.op_class::SimdFloatCvt                  0                       # Class of executed instruction
system.cpu0.op_class::SimdFloatDiv                  0                       # Class of executed instruction
system.cpu0.op_class::SimdFloatMisc                 0                       # Class of executed instruction
system.cpu0.op_class::SimdFloatMult                 0                       # Class of executed instruction
system.cpu0.op_class::SimdFloatMultAcc              0                       # Class of executed instruction
system.cpu0.op_class::SimdFloatSqrt                 0                       # Class of executed instruction
system.cpu0.op_class::MemRead                       0                       # Class of executed instruction
system.cpu0.op_class::MemWrite                      0                       # Class of executed instruction
system.cpu0.op_class::IprAccess                     0                       # Class of executed instruction
system.cpu0.op_class::InstPrefetch                  0                       # Class of executed instruction
system.cpu0.op_class::total                         0                       # Class of executed instruction
system.cpu0.kern.inst.arm                           0                       # number of arm instructions executed
system.cpu0.kern.inst.quiesce                       3                       # number of quiesce instructions executed
system.cpu0.kern.inst.hwrei                       597                       # number of hwrei instructions executed
system.cpu0.kern.ipl_count::0                     168     46.28%     46.28% # number of times we switched to this ipl
system.cpu0.kern.ipl_count::22                      1      0.28%     46.56% # number of times we switched to this ipl
system.cpu0.kern.ipl_count::30                      1      0.28%     46.83% # number of times we switched to this ipl
system.cpu0.kern.ipl_count::31                    193     53.17%    100.00% # number of times we switched to this ipl
system.cpu0.kern.ipl_count::total                 363                       # number of times we switched to this ipl
system.cpu0.kern.ipl_good::0                      168     49.85%     49.85% # number of times we switched to this ipl from a different ipl
system.cpu0.kern.ipl_good::22                       1      0.30%     50.15% # number of times we switched to this ipl from a different ipl
system.cpu0.kern.ipl_good::30                       1      0.30%     50.45% # number of times we switched to this ipl from a different ipl
system.cpu0.kern.ipl_good::31                     167     49.55%    100.00% # number of times we switched to this ipl from a different ipl
system.cpu0.kern.ipl_good::total                  337                       # number of times we switched to this ipl from a different ipl
system.cpu0.kern.ipl_ticks::0               489364000     88.25%     88.25% # number of cycles we spent at this ipl
system.cpu0.kern.ipl_ticks::22                1252000      0.23%     88.48% # number of cycles we spent at this ipl
system.cpu0.kern.ipl_ticks::30                1661000      0.30%     88.78% # number of cycles we spent at this ipl
system.cpu0.kern.ipl_ticks::31               62229500     11.22%    100.00% # number of cycles we spent at this ipl
system.cpu0.kern.ipl_ticks::total           554506500                       # number of cycles we spent at this ipl
system.cpu0.kern.ipl_used::0                        1                       # fraction of swpipl calls that actually changed the ipl
system.cpu0.kern.ipl_used::22                       1                       # fraction of swpipl calls that actually changed the ipl
system.cpu0.kern.ipl_used::30                       1                       # fraction of swpipl calls that actually changed the ipl
system.cpu0.kern.ipl_used::31                0.865285                       # fraction of swpipl calls that actually changed the ipl
system.cpu0.kern.ipl_used::total             0.928375                       # fraction of swpipl calls that actually changed the ipl
system.cpu0.kern.syscall::2                         1     33.33%     33.33% # number of syscalls executed
system.cpu0.kern.syscall::3                         1     33.33%     66.67% # number of syscalls executed
system.cpu0.kern.syscall::19                        1     33.33%    100.00% # number of syscalls executed
system.cpu0.kern.syscall::total                     3                       # number of syscalls executed
system.cpu0.kern.callpal::wripir                    1      0.26%      0.26% # number of callpals executed
system.cpu0.kern.callpal::swpctx                   12      3.08%      3.34% # number of callpals executed
system.cpu0.kern.callpal::tbi                       2      0.51%      3.86% # number of callpals executed
system.cpu0.kern.callpal::swpipl                  342     87.92%     91.77% # number of callpals executed
system.cpu0.kern.callpal::rdps                      2      0.51%     92.29% # number of callpals executed
system.cpu0.kern.callpal::rdusp                     1      0.26%     92.54% # number of callpals executed
system.cpu0.kern.callpal::rti                      19      4.88%     97.43% # number of callpals executed
system.cpu0.kern.callpal::callsys                   9      2.31%     99.74% # number of callpals executed
system.cpu0.kern.callpal::imb                       1      0.26%    100.00% # number of callpals executed
system.cpu0.kern.callpal::total                   389                       # number of callpals executed
system.cpu0.kern.mode_switch::kernel               32                       # number of protection mode switches
system.cpu0.kern.mode_switch::user                 17                       # number of protection mode switches
system.cpu0.kern.mode_switch::idle                  0                       # number of protection mode switches
system.cpu0.kern.mode_good::kernel                 18                      
system.cpu0.kern.mode_good::user                   17                      
system.cpu0.kern.mode_good::idle                    0                      
system.cpu0.kern.mode_switch_good::kernel     0.562500                       # fraction of useful protection mode switches
system.cpu0.kern.mode_switch_good::user             1                       # fraction of useful protection mode switches
system.cpu0.kern.mode_switch_good::idle           nan                       # fraction of useful protection mode switches
system.cpu0.kern.mode_switch_good::total     0.714286                       # fraction of useful protection mode switches
system.cpu0.kern.mode_ticks::kernel         239732000     73.59%     73.59% # number of ticks spent at the given mode
system.cpu0.kern.mode_ticks::user            86051000     26.41%    100.00% # number of ticks spent at the given mode
system.cpu0.kern.mode_ticks::idle                   0      0.00%    100.00% # number of ticks spent at the given mode
system.cpu0.kern.swap_context                      12                       # number of times the context was actually changed
system.cpu0.dcache.tags.replacements             4844                       # number of replacements
system.cpu0.dcache.tags.tagsinuse          504.867139                       # Cycle average of tags in use
system.cpu0.dcache.tags.total_refs              55860                       # Total number of references to valid blocks.
system.cpu0.dcache.tags.sampled_refs             4844                       # Sample count of references to valid blocks.
system.cpu0.dcache.tags.avg_refs            11.531792                       # Average number of references to valid blocks.
system.cpu0.dcache.tags.warmup_cycle                0                       # Cycle when the warmup percentage was hit.
system.cpu0.dcache.tags.occ_blocks::cpu0.data    24.145723                       # Average occupied blocks per requestor
system.cpu0.dcache.tags.occ_blocks::switch_cpus0.data   480.721416                       # Average occupied blocks per requestor
system.cpu0.dcache.tags.occ_percent::cpu0.data     0.047160                       # Average percentage of cache occupancy
system.cpu0.dcache.tags.occ_percent::switch_cpus0.data     0.938909                       # Average percentage of cache occupancy
system.cpu0.dcache.tags.occ_percent::total     0.986069                       # Average percentage of cache occupancy
system.cpu0.dcache.tags.occ_task_id_blocks::1024          500                       # Occupied blocks per task id
system.cpu0.dcache.tags.age_task_id_blocks_1024::2          492                       # Occupied blocks per task id
system.cpu0.dcache.tags.age_task_id_blocks_1024::3            8                       # Occupied blocks per task id
system.cpu0.dcache.tags.occ_task_id_percent::1024     0.976562                       # Percentage of cache occupancy per task id
system.cpu0.dcache.tags.tag_accesses           289616                       # Number of tag accesses
system.cpu0.dcache.tags.data_accesses          289616                       # Number of data accesses
system.cpu0.dcache.ReadReq_hits::switch_cpus0.data        33032                       # number of ReadReq hits
system.cpu0.dcache.ReadReq_hits::total          33032                       # number of ReadReq hits
system.cpu0.dcache.WriteReq_hits::switch_cpus0.data        13644                       # number of WriteReq hits
system.cpu0.dcache.WriteReq_hits::total         13644                       # number of WriteReq hits
system.cpu0.dcache.LoadLockedReq_hits::switch_cpus0.data          535                       # number of LoadLockedReq hits
system.cpu0.dcache.LoadLockedReq_hits::total          535                       # number of LoadLockedReq hits
system.cpu0.dcache.StoreCondReq_hits::switch_cpus0.data          596                       # number of StoreCondReq hits
system.cpu0.dcache.StoreCondReq_hits::total          596                       # number of StoreCondReq hits
system.cpu0.dcache.demand_hits::switch_cpus0.data        46676                       # number of demand (read+write) hits
system.cpu0.dcache.demand_hits::total           46676                       # number of demand (read+write) hits
system.cpu0.dcache.overall_hits::switch_cpus0.data        46676                       # number of overall hits
system.cpu0.dcache.overall_hits::total          46676                       # number of overall hits
system.cpu0.dcache.ReadReq_misses::switch_cpus0.data         8748                       # number of ReadReq misses
system.cpu0.dcache.ReadReq_misses::total         8748                       # number of ReadReq misses
system.cpu0.dcache.WriteReq_misses::switch_cpus0.data        14444                       # number of WriteReq misses
system.cpu0.dcache.WriteReq_misses::total        14444                       # number of WriteReq misses
system.cpu0.dcache.LoadLockedReq_misses::switch_cpus0.data          159                       # number of LoadLockedReq misses
system.cpu0.dcache.LoadLockedReq_misses::total          159                       # number of LoadLockedReq misses
system.cpu0.dcache.StoreCondReq_misses::switch_cpus0.data           23                       # number of StoreCondReq misses
system.cpu0.dcache.StoreCondReq_misses::total           23                       # number of StoreCondReq misses
system.cpu0.dcache.demand_misses::switch_cpus0.data        23192                       # number of demand (read+write) misses
system.cpu0.dcache.demand_misses::total         23192                       # number of demand (read+write) misses
system.cpu0.dcache.overall_misses::switch_cpus0.data        23192                       # number of overall misses
system.cpu0.dcache.overall_misses::total        23192                       # number of overall misses
system.cpu0.dcache.ReadReq_miss_latency::switch_cpus0.data    540338731                       # number of ReadReq miss cycles
system.cpu0.dcache.ReadReq_miss_latency::total    540338731                       # number of ReadReq miss cycles
system.cpu0.dcache.WriteReq_miss_latency::switch_cpus0.data   1083752456                       # number of WriteReq miss cycles
system.cpu0.dcache.WriteReq_miss_latency::total   1083752456                       # number of WriteReq miss cycles
system.cpu0.dcache.LoadLockedReq_miss_latency::switch_cpus0.data     11245499                       # number of LoadLockedReq miss cycles
system.cpu0.dcache.LoadLockedReq_miss_latency::total     11245499                       # number of LoadLockedReq miss cycles
system.cpu0.dcache.StoreCondReq_miss_latency::switch_cpus0.data       224003                       # number of StoreCondReq miss cycles
system.cpu0.dcache.StoreCondReq_miss_latency::total       224003                       # number of StoreCondReq miss cycles
system.cpu0.dcache.demand_miss_latency::switch_cpus0.data   1624091187                       # number of demand (read+write) miss cycles
system.cpu0.dcache.demand_miss_latency::total   1624091187                       # number of demand (read+write) miss cycles
system.cpu0.dcache.overall_miss_latency::switch_cpus0.data   1624091187                       # number of overall miss cycles
system.cpu0.dcache.overall_miss_latency::total   1624091187                       # number of overall miss cycles
system.cpu0.dcache.ReadReq_accesses::switch_cpus0.data        41780                       # number of ReadReq accesses(hits+misses)
system.cpu0.dcache.ReadReq_accesses::total        41780                       # number of ReadReq accesses(hits+misses)
system.cpu0.dcache.WriteReq_accesses::switch_cpus0.data        28088                       # number of WriteReq accesses(hits+misses)
system.cpu0.dcache.WriteReq_accesses::total        28088                       # number of WriteReq accesses(hits+misses)
system.cpu0.dcache.LoadLockedReq_accesses::switch_cpus0.data          694                       # number of LoadLockedReq accesses(hits+misses)
system.cpu0.dcache.LoadLockedReq_accesses::total          694                       # number of LoadLockedReq accesses(hits+misses)
system.cpu0.dcache.StoreCondReq_accesses::switch_cpus0.data          619                       # number of StoreCondReq accesses(hits+misses)
system.cpu0.dcache.StoreCondReq_accesses::total          619                       # number of StoreCondReq accesses(hits+misses)
system.cpu0.dcache.demand_accesses::switch_cpus0.data        69868                       # number of demand (read+write) accesses
system.cpu0.dcache.demand_accesses::total        69868                       # number of demand (read+write) accesses
system.cpu0.dcache.overall_accesses::switch_cpus0.data        69868                       # number of overall (read+write) accesses
system.cpu0.dcache.overall_accesses::total        69868                       # number of overall (read+write) accesses
system.cpu0.dcache.ReadReq_miss_rate::switch_cpus0.data     0.209382                       # miss rate for ReadReq accesses
system.cpu0.dcache.ReadReq_miss_rate::total     0.209382                       # miss rate for ReadReq accesses
system.cpu0.dcache.WriteReq_miss_rate::switch_cpus0.data     0.514241                       # miss rate for WriteReq accesses
system.cpu0.dcache.WriteReq_miss_rate::total     0.514241                       # miss rate for WriteReq accesses
system.cpu0.dcache.LoadLockedReq_miss_rate::switch_cpus0.data     0.229107                       # miss rate for LoadLockedReq accesses
system.cpu0.dcache.LoadLockedReq_miss_rate::total     0.229107                       # miss rate for LoadLockedReq accesses
system.cpu0.dcache.StoreCondReq_miss_rate::switch_cpus0.data     0.037157                       # miss rate for StoreCondReq accesses
system.cpu0.dcache.StoreCondReq_miss_rate::total     0.037157                       # miss rate for StoreCondReq accesses
system.cpu0.dcache.demand_miss_rate::switch_cpus0.data     0.331940                       # miss rate for demand accesses
system.cpu0.dcache.demand_miss_rate::total     0.331940                       # miss rate for demand accesses
system.cpu0.dcache.overall_miss_rate::switch_cpus0.data     0.331940                       # miss rate for overall accesses
system.cpu0.dcache.overall_miss_rate::total     0.331940                       # miss rate for overall accesses
system.cpu0.dcache.ReadReq_avg_miss_latency::switch_cpus0.data 61767.116027                       # average ReadReq miss latency
system.cpu0.dcache.ReadReq_avg_miss_latency::total 61767.116027                       # average ReadReq miss latency
system.cpu0.dcache.WriteReq_avg_miss_latency::switch_cpus0.data 75031.324841                       # average WriteReq miss latency
system.cpu0.dcache.WriteReq_avg_miss_latency::total 75031.324841                       # average WriteReq miss latency
system.cpu0.dcache.LoadLockedReq_avg_miss_latency::switch_cpus0.data 70726.408805                       # average LoadLockedReq miss latency
system.cpu0.dcache.LoadLockedReq_avg_miss_latency::total 70726.408805                       # average LoadLockedReq miss latency
system.cpu0.dcache.StoreCondReq_avg_miss_latency::switch_cpus0.data  9739.260870                       # average StoreCondReq miss latency
system.cpu0.dcache.StoreCondReq_avg_miss_latency::total  9739.260870                       # average StoreCondReq miss latency
system.cpu0.dcache.demand_avg_miss_latency::switch_cpus0.data 70028.078087                       # average overall miss latency
system.cpu0.dcache.demand_avg_miss_latency::total 70028.078087                       # average overall miss latency
system.cpu0.dcache.overall_avg_miss_latency::switch_cpus0.data 70028.078087                       # average overall miss latency
system.cpu0.dcache.overall_avg_miss_latency::total 70028.078087                       # average overall miss latency
system.cpu0.dcache.blocked_cycles::no_mshrs        93468                       # number of cycles access was blocked
system.cpu0.dcache.blocked_cycles::no_targets            0                       # number of cycles access was blocked
system.cpu0.dcache.blocked::no_mshrs             2003                       # number of cycles access was blocked
system.cpu0.dcache.blocked::no_targets              0                       # number of cycles access was blocked
system.cpu0.dcache.avg_blocked_cycles::no_mshrs    46.664004                       # average number of cycles each access was blocked
system.cpu0.dcache.avg_blocked_cycles::no_targets          nan                       # average number of cycles each access was blocked
system.cpu0.dcache.fast_writes                      0                       # number of fast writes performed
system.cpu0.dcache.cache_copies                     0                       # number of cache copies performed
system.cpu0.dcache.writebacks::writebacks         2798                       # number of writebacks
system.cpu0.dcache.writebacks::total             2798                       # number of writebacks
system.cpu0.dcache.ReadReq_mshr_hits::switch_cpus0.data         5969                       # number of ReadReq MSHR hits
system.cpu0.dcache.ReadReq_mshr_hits::total         5969                       # number of ReadReq MSHR hits
system.cpu0.dcache.WriteReq_mshr_hits::switch_cpus0.data        12361                       # number of WriteReq MSHR hits
system.cpu0.dcache.WriteReq_mshr_hits::total        12361                       # number of WriteReq MSHR hits
system.cpu0.dcache.LoadLockedReq_mshr_hits::switch_cpus0.data           57                       # number of LoadLockedReq MSHR hits
system.cpu0.dcache.LoadLockedReq_mshr_hits::total           57                       # number of LoadLockedReq MSHR hits
system.cpu0.dcache.demand_mshr_hits::switch_cpus0.data        18330                       # number of demand (read+write) MSHR hits
system.cpu0.dcache.demand_mshr_hits::total        18330                       # number of demand (read+write) MSHR hits
system.cpu0.dcache.overall_mshr_hits::switch_cpus0.data        18330                       # number of overall MSHR hits
system.cpu0.dcache.overall_mshr_hits::total        18330                       # number of overall MSHR hits
system.cpu0.dcache.ReadReq_mshr_misses::switch_cpus0.data         2779                       # number of ReadReq MSHR misses
system.cpu0.dcache.ReadReq_mshr_misses::total         2779                       # number of ReadReq MSHR misses
system.cpu0.dcache.WriteReq_mshr_misses::switch_cpus0.data         2083                       # number of WriteReq MSHR misses
system.cpu0.dcache.WriteReq_mshr_misses::total         2083                       # number of WriteReq MSHR misses
system.cpu0.dcache.LoadLockedReq_mshr_misses::switch_cpus0.data          102                       # number of LoadLockedReq MSHR misses
system.cpu0.dcache.LoadLockedReq_mshr_misses::total          102                       # number of LoadLockedReq MSHR misses
system.cpu0.dcache.StoreCondReq_mshr_misses::switch_cpus0.data           23                       # number of StoreCondReq MSHR misses
system.cpu0.dcache.StoreCondReq_mshr_misses::total           23                       # number of StoreCondReq MSHR misses
system.cpu0.dcache.demand_mshr_misses::switch_cpus0.data         4862                       # number of demand (read+write) MSHR misses
system.cpu0.dcache.demand_mshr_misses::total         4862                       # number of demand (read+write) MSHR misses
system.cpu0.dcache.overall_mshr_misses::switch_cpus0.data         4862                       # number of overall MSHR misses
system.cpu0.dcache.overall_mshr_misses::total         4862                       # number of overall MSHR misses
system.cpu0.dcache.WriteReq_mshr_uncacheable::switch_cpus0.data            3                       # number of WriteReq MSHR uncacheable
system.cpu0.dcache.WriteReq_mshr_uncacheable::total            3                       # number of WriteReq MSHR uncacheable
system.cpu0.dcache.overall_mshr_uncacheable_misses::switch_cpus0.data            3                       # number of overall MSHR uncacheable misses
system.cpu0.dcache.overall_mshr_uncacheable_misses::total            3                       # number of overall MSHR uncacheable misses
system.cpu0.dcache.ReadReq_mshr_miss_latency::switch_cpus0.data    197268026                       # number of ReadReq MSHR miss cycles
system.cpu0.dcache.ReadReq_mshr_miss_latency::total    197268026                       # number of ReadReq MSHR miss cycles
system.cpu0.dcache.WriteReq_mshr_miss_latency::switch_cpus0.data    172468300                       # number of WriteReq MSHR miss cycles
system.cpu0.dcache.WriteReq_mshr_miss_latency::total    172468300                       # number of WriteReq MSHR miss cycles
system.cpu0.dcache.LoadLockedReq_mshr_miss_latency::switch_cpus0.data      7505501                       # number of LoadLockedReq MSHR miss cycles
system.cpu0.dcache.LoadLockedReq_mshr_miss_latency::total      7505501                       # number of LoadLockedReq MSHR miss cycles
system.cpu0.dcache.StoreCondReq_mshr_miss_latency::switch_cpus0.data       189497                       # number of StoreCondReq MSHR miss cycles
system.cpu0.dcache.StoreCondReq_mshr_miss_latency::total       189497                       # number of StoreCondReq MSHR miss cycles
system.cpu0.dcache.demand_mshr_miss_latency::switch_cpus0.data    369736326                       # number of demand (read+write) MSHR miss cycles
system.cpu0.dcache.demand_mshr_miss_latency::total    369736326                       # number of demand (read+write) MSHR miss cycles
system.cpu0.dcache.overall_mshr_miss_latency::switch_cpus0.data    369736326                       # number of overall MSHR miss cycles
system.cpu0.dcache.overall_mshr_miss_latency::total    369736326                       # number of overall MSHR miss cycles
system.cpu0.dcache.WriteReq_mshr_uncacheable_latency::switch_cpus0.data       670500                       # number of WriteReq MSHR uncacheable cycles
system.cpu0.dcache.WriteReq_mshr_uncacheable_latency::total       670500                       # number of WriteReq MSHR uncacheable cycles
system.cpu0.dcache.overall_mshr_uncacheable_latency::switch_cpus0.data       670500                       # number of overall MSHR uncacheable cycles
system.cpu0.dcache.overall_mshr_uncacheable_latency::total       670500                       # number of overall MSHR uncacheable cycles
system.cpu0.dcache.ReadReq_mshr_miss_rate::switch_cpus0.data     0.066515                       # mshr miss rate for ReadReq accesses
system.cpu0.dcache.ReadReq_mshr_miss_rate::total     0.066515                       # mshr miss rate for ReadReq accesses
system.cpu0.dcache.WriteReq_mshr_miss_rate::switch_cpus0.data     0.074160                       # mshr miss rate for WriteReq accesses
system.cpu0.dcache.WriteReq_mshr_miss_rate::total     0.074160                       # mshr miss rate for WriteReq accesses
system.cpu0.dcache.LoadLockedReq_mshr_miss_rate::switch_cpus0.data     0.146974                       # mshr miss rate for LoadLockedReq accesses
system.cpu0.dcache.LoadLockedReq_mshr_miss_rate::total     0.146974                       # mshr miss rate for LoadLockedReq accesses
system.cpu0.dcache.StoreCondReq_mshr_miss_rate::switch_cpus0.data     0.037157                       # mshr miss rate for StoreCondReq accesses
system.cpu0.dcache.StoreCondReq_mshr_miss_rate::total     0.037157                       # mshr miss rate for StoreCondReq accesses
system.cpu0.dcache.demand_mshr_miss_rate::switch_cpus0.data     0.069588                       # mshr miss rate for demand accesses
system.cpu0.dcache.demand_mshr_miss_rate::total     0.069588                       # mshr miss rate for demand accesses
system.cpu0.dcache.overall_mshr_miss_rate::switch_cpus0.data     0.069588                       # mshr miss rate for overall accesses
system.cpu0.dcache.overall_mshr_miss_rate::total     0.069588                       # mshr miss rate for overall accesses
system.cpu0.dcache.ReadReq_avg_mshr_miss_latency::switch_cpus0.data 70985.255847                       # average ReadReq mshr miss latency
system.cpu0.dcache.ReadReq_avg_mshr_miss_latency::total 70985.255847                       # average ReadReq mshr miss latency
system.cpu0.dcache.WriteReq_avg_mshr_miss_latency::switch_cpus0.data 82798.031685                       # average WriteReq mshr miss latency
system.cpu0.dcache.WriteReq_avg_mshr_miss_latency::total 82798.031685                       # average WriteReq mshr miss latency
system.cpu0.dcache.LoadLockedReq_avg_mshr_miss_latency::switch_cpus0.data 73583.343137                       # average LoadLockedReq mshr miss latency
system.cpu0.dcache.LoadLockedReq_avg_mshr_miss_latency::total 73583.343137                       # average LoadLockedReq mshr miss latency
system.cpu0.dcache.StoreCondReq_avg_mshr_miss_latency::switch_cpus0.data         8239                       # average StoreCondReq mshr miss latency
system.cpu0.dcache.StoreCondReq_avg_mshr_miss_latency::total         8239                       # average StoreCondReq mshr miss latency
system.cpu0.dcache.demand_avg_mshr_miss_latency::switch_cpus0.data 76046.138626                       # average overall mshr miss latency
system.cpu0.dcache.demand_avg_mshr_miss_latency::total 76046.138626                       # average overall mshr miss latency
system.cpu0.dcache.overall_avg_mshr_miss_latency::switch_cpus0.data 76046.138626                       # average overall mshr miss latency
system.cpu0.dcache.overall_avg_mshr_miss_latency::total 76046.138626                       # average overall mshr miss latency
system.cpu0.dcache.WriteReq_avg_mshr_uncacheable_latency::switch_cpus0.data       223500                       # average WriteReq mshr uncacheable latency
system.cpu0.dcache.WriteReq_avg_mshr_uncacheable_latency::total       223500                       # average WriteReq mshr uncacheable latency
system.cpu0.dcache.overall_avg_mshr_uncacheable_latency::switch_cpus0.data       223500                       # average overall mshr uncacheable latency
system.cpu0.dcache.overall_avg_mshr_uncacheable_latency::total       223500                       # average overall mshr uncacheable latency
system.cpu0.dcache.no_allocate_misses               0                       # Number of misses that were no-allocate
system.cpu0.icache.tags.replacements             3526                       # number of replacements
system.cpu0.icache.tags.tagsinuse          511.921742                       # Cycle average of tags in use
system.cpu0.icache.tags.total_refs             261181                       # Total number of references to valid blocks.
system.cpu0.icache.tags.sampled_refs             3526                       # Sample count of references to valid blocks.
system.cpu0.icache.tags.avg_refs            74.072887                       # Average number of references to valid blocks.
system.cpu0.icache.tags.warmup_cycle                0                       # Cycle when the warmup percentage was hit.
system.cpu0.icache.tags.occ_blocks::cpu0.inst    20.118316                       # Average occupied blocks per requestor
system.cpu0.icache.tags.occ_blocks::switch_cpus0.inst   491.803426                       # Average occupied blocks per requestor
system.cpu0.icache.tags.occ_percent::cpu0.inst     0.039294                       # Average percentage of cache occupancy
system.cpu0.icache.tags.occ_percent::switch_cpus0.inst     0.960554                       # Average percentage of cache occupancy
system.cpu0.icache.tags.occ_percent::total     0.999847                       # Average percentage of cache occupancy
system.cpu0.icache.tags.occ_task_id_blocks::1024          512                       # Occupied blocks per task id
system.cpu0.icache.tags.age_task_id_blocks_1024::2          471                       # Occupied blocks per task id
system.cpu0.icache.tags.age_task_id_blocks_1024::3           41                       # Occupied blocks per task id
system.cpu0.icache.tags.occ_task_id_percent::1024            1                       # Percentage of cache occupancy per task id
system.cpu0.icache.tags.tag_accesses            86645                       # Number of tag accesses
system.cpu0.icache.tags.data_accesses           86645                       # Number of data accesses
system.cpu0.icache.ReadReq_hits::switch_cpus0.inst        37224                       # number of ReadReq hits
system.cpu0.icache.ReadReq_hits::total          37224                       # number of ReadReq hits
system.cpu0.icache.demand_hits::switch_cpus0.inst        37224                       # number of demand (read+write) hits
system.cpu0.icache.demand_hits::total           37224                       # number of demand (read+write) hits
system.cpu0.icache.overall_hits::switch_cpus0.inst        37224                       # number of overall hits
system.cpu0.icache.overall_hits::total          37224                       # number of overall hits
system.cpu0.icache.ReadReq_misses::switch_cpus0.inst         4333                       # number of ReadReq misses
system.cpu0.icache.ReadReq_misses::total         4333                       # number of ReadReq misses
system.cpu0.icache.demand_misses::switch_cpus0.inst         4333                       # number of demand (read+write) misses
system.cpu0.icache.demand_misses::total          4333                       # number of demand (read+write) misses
system.cpu0.icache.overall_misses::switch_cpus0.inst         4333                       # number of overall misses
system.cpu0.icache.overall_misses::total         4333                       # number of overall misses
system.cpu0.icache.ReadReq_miss_latency::switch_cpus0.inst    311436081                       # number of ReadReq miss cycles
system.cpu0.icache.ReadReq_miss_latency::total    311436081                       # number of ReadReq miss cycles
system.cpu0.icache.demand_miss_latency::switch_cpus0.inst    311436081                       # number of demand (read+write) miss cycles
system.cpu0.icache.demand_miss_latency::total    311436081                       # number of demand (read+write) miss cycles
system.cpu0.icache.overall_miss_latency::switch_cpus0.inst    311436081                       # number of overall miss cycles
system.cpu0.icache.overall_miss_latency::total    311436081                       # number of overall miss cycles
system.cpu0.icache.ReadReq_accesses::switch_cpus0.inst        41557                       # number of ReadReq accesses(hits+misses)
system.cpu0.icache.ReadReq_accesses::total        41557                       # number of ReadReq accesses(hits+misses)
system.cpu0.icache.demand_accesses::switch_cpus0.inst        41557                       # number of demand (read+write) accesses
system.cpu0.icache.demand_accesses::total        41557                       # number of demand (read+write) accesses
[...]
system.switch_cpus3.fp_regfile_reads              154                       # number of floating regfile reads
system.switch_cpus3.fp_regfile_writes             155                       # number of floating regfile writes
system.switch_cpus3.misc_regfile_reads          18776                       # number of misc regfile reads
system.switch_cpus3.misc_regfile_writes          4748                       # number of misc regfile writes
system.tol2bus.trans_dist::ReadReq              62565                       # Transaction distribution
system.tol2bus.trans_dist::ReadResp             62561                       # Transaction distribution
system.tol2bus.trans_dist::WriteReq               221                       # Transaction distribution
system.tol2bus.trans_dist::WriteResp              221                       # Transaction distribution
system.tol2bus.trans_dist::Writeback            14948                       # Transaction distribution
system.tol2bus.trans_dist::WriteInvalidateReq          256                       # Transaction distribution
system.tol2bus.trans_dist::UpgradeReq             198                       # Transaction distribution
system.tol2bus.trans_dist::SCUpgradeReq           123                       # Transaction distribution
system.tol2bus.trans_dist::UpgradeResp            321                       # Transaction distribution
system.tol2bus.trans_dist::SCUpgradeFailReq            1                       # Transaction distribution
system.tol2bus.trans_dist::UpgradeFailResp            1                       # Transaction distribution
system.tol2bus.trans_dist::ReadExReq            11844                       # Transaction distribution
system.tol2bus.trans_dist::ReadExResp           11844                       # Transaction distribution
system.tol2bus.trans_dist::BadAddressError            1                       # Transaction distribution
system.tol2bus.pkt_count_system.cpu0.icache.mem_side::system.l2.cpu_side        12455                       # Packet count per connected master and slave (bytes)
system.tol2bus.pkt_count_system.cpu0.dcache.mem_side::system.l2.cpu_side        33086                       # Packet count per connected master and slave (bytes)
system.tol2bus.pkt_count_system.cpu1.icache.mem_side::system.l2.cpu_side          200                       # Packet count per connected master and slave (bytes)
system.tol2bus.pkt_count_system.cpu1.dcache.mem_side::system.l2.cpu_side           69                       # Packet count per connected master and slave (bytes)
system.tol2bus.pkt_count_system.cpu2.icache.mem_side::system.l2.cpu_side        75315                       # Packet count per connected master and slave (bytes)
system.tol2bus.pkt_count_system.cpu2.dcache.mem_side::system.l2.cpu_side        32745                       # Packet count per connected master and slave (bytes)
system.tol2bus.pkt_count_system.cpu3.icache.mem_side::system.l2.cpu_side         3917                       # Packet count per connected master and slave (bytes)
system.tol2bus.pkt_count_system.cpu3.dcache.mem_side::system.l2.cpu_side         6317                       # Packet count per connected master and slave (bytes)
system.tol2bus.pkt_count::total                164104                       # Packet count per connected master and slave (bytes)
system.tol2bus.pkt_size_system.cpu0.icache.mem_side::system.l2.cpu_side       398528                       # Cumulative packet size per connected master and slave (bytes)
system.tol2bus.pkt_size_system.cpu0.dcache.mem_side::system.l2.cpu_side      1265999                       # Cumulative packet size per connected master and slave (bytes)
system.tol2bus.pkt_size_system.cpu1.icache.mem_side::system.l2.cpu_side         6400                       # Cumulative packet size per connected master and slave (bytes)
system.tol2bus.pkt_size_system.cpu1.dcache.mem_side::system.l2.cpu_side          520                       # Cumulative packet size per connected master and slave (bytes)
system.tol2bus.pkt_size_system.cpu2.icache.mem_side::system.l2.cpu_side      2409536                       # Cumulative packet size per connected master and slave (bytes)
system.tol2bus.pkt_size_system.cpu2.dcache.mem_side::system.l2.cpu_side      1226335                       # Cumulative packet size per connected master and slave (bytes)
system.tol2bus.pkt_size_system.cpu3.icache.mem_side::system.l2.cpu_side       125312                       # Cumulative packet size per connected master and slave (bytes)
system.tol2bus.pkt_size_system.cpu3.dcache.mem_side::system.l2.cpu_side       230552                       # Cumulative packet size per connected master and slave (bytes)
system.tol2bus.pkt_size::total                5663182                       # Cumulative packet size per connected master and slave (bytes)
system.tol2bus.snoops                            1001                       # Total snoops (count)
system.tol2bus.snoop_fanout::samples            90156                       # Request fanout histogram
system.tol2bus.snoop_fanout::mean            7.002884                       # Request fanout histogram
system.tol2bus.snoop_fanout::stdev           0.053625                       # Request fanout histogram
system.tol2bus.snoop_fanout::underflows             0      0.00%      0.00% # Request fanout histogram
system.tol2bus.snoop_fanout::0                      0      0.00%      0.00% # Request fanout histogram
system.tol2bus.snoop_fanout::1                      0      0.00%      0.00% # Request fanout histogram
system.tol2bus.snoop_fanout::2                      0      0.00%      0.00% # Request fanout histogram
system.tol2bus.snoop_fanout::3                      0      0.00%      0.00% # Request fanout histogram
system.tol2bus.snoop_fanout::4                      0      0.00%      0.00% # Request fanout histogram
system.tol2bus.snoop_fanout::5                      0      0.00%      0.00% # Request fanout histogram
system.tol2bus.snoop_fanout::6                      0      0.00%      0.00% # Request fanout histogram
system.tol2bus.snoop_fanout::7                  89896     99.71%     99.71% # Request fanout histogram
system.tol2bus.snoop_fanout::8                    260      0.29%    100.00% # Request fanout histogram
system.tol2bus.snoop_fanout::overflows              0      0.00%    100.00% # Request fanout histogram
system.tol2bus.snoop_fanout::min_value              7                       # Request fanout histogram
system.tol2bus.snoop_fanout::max_value              8                       # Request fanout histogram
system.tol2bus.snoop_fanout::total              90156                       # Request fanout histogram
system.tol2bus.reqLayer0.occupancy           60006500                       # Layer occupancy (ticks)
system.tol2bus.reqLayer0.utilization              0.7                       # Layer utilization (%)
system.tol2bus.respLayer0.occupancy          10112228                       # Layer occupancy (ticks)
system.tol2bus.respLayer0.utilization             0.1                       # Layer utilization (%)
system.tol2bus.respLayer1.occupancy          20436299                       # Layer occupancy (ticks)
system.tol2bus.respLayer1.utilization             0.3                       # Layer utilization (%)
system.tol2bus.respLayer2.occupancy            159977                       # Layer occupancy (ticks)
system.tol2bus.respLayer2.utilization             0.0                       # Layer utilization (%)
system.tol2bus.respLayer3.occupancy             50004                       # Layer occupancy (ticks)
system.tol2bus.respLayer3.utilization             0.0                       # Layer utilization (%)
system.tol2bus.respLayer4.occupancy          58755688                       # Layer occupancy (ticks)
system.tol2bus.respLayer4.utilization             0.7                       # Layer utilization (%)
system.tol2bus.respLayer5.occupancy          21438505                       # Layer occupancy (ticks)
system.tol2bus.respLayer5.utilization             0.3                       # Layer utilization (%)
system.tol2bus.respLayer6.occupancy           3139457                       # Layer occupancy (ticks)
system.tol2bus.respLayer6.utilization             0.0                       # Layer utilization (%)
system.tol2bus.respLayer7.occupancy           4284214                       # Layer occupancy (ticks)
system.tol2bus.respLayer7.utilization             0.1                       # Layer utilization (%)
system.tsunami.ethernet.descDMAReads                0                       # Number of descriptors the device read w/ DMA
system.tsunami.ethernet.descDMAWrites               0                       # Number of descriptors the device wrote w/ DMA
system.tsunami.ethernet.descDmaReadBytes            0                       # number of descriptor bytes read w/ DMA
system.tsunami.ethernet.descDmaWriteBytes            0                       # number of descriptor bytes write w/ DMA
system.tsunami.ethernet.postedSwi                   0                       # number of software interrupts posted to CPU
system.tsunami.ethernet.coalescedSwi              nan                       # average number of Swi's coalesced into each post
system.tsunami.ethernet.totalSwi                    0                       # total number of Swi written to ISR
system.tsunami.ethernet.postedRxIdle                0                       # number of rxIdle interrupts posted to CPU
system.tsunami.ethernet.coalescedRxIdle           nan                       # average number of RxIdle's coalesced into each post
system.tsunami.ethernet.totalRxIdle                 0                       # total number of RxIdle written to ISR
system.tsunami.ethernet.postedRxOk                  0                       # number of RxOk interrupts posted to CPU
system.tsunami.ethernet.coalescedRxOk             nan                       # average number of RxOk's coalesced into each post
system.tsunami.ethernet.totalRxOk                   0                       # total number of RxOk written to ISR
system.tsunami.ethernet.postedRxDesc                0                       # number of RxDesc interrupts posted to CPU
system.tsunami.ethernet.coalescedRxDesc           nan                       # average number of RxDesc's coalesced into each post
system.tsunami.ethernet.totalRxDesc                 0                       # total number of RxDesc written to ISR
system.tsunami.ethernet.postedTxOk                  0                       # number of TxOk interrupts posted to CPU
system.tsunami.ethernet.coalescedTxOk             nan                       # average number of TxOk's coalesced into each post
system.tsunami.ethernet.totalTxOk                   0                       # total number of TxOk written to ISR
system.tsunami.ethernet.postedTxIdle                0                       # number of TxIdle interrupts posted to CPU
system.tsunami.ethernet.coalescedTxIdle           nan                       # average number of TxIdle's coalesced into each post
system.tsunami.ethernet.totalTxIdle                 0                       # total number of TxIdle written to ISR
system.tsunami.ethernet.postedTxDesc                0                       # number of TxDesc interrupts posted to CPU
system.tsunami.ethernet.coalescedTxDesc           nan                       # average number of TxDesc's coalesced into each post
system.tsunami.ethernet.totalTxDesc                 0                       # total number of TxDesc written to ISR
system.tsunami.ethernet.postedRxOrn                 0                       # number of RxOrn posted to CPU
system.tsunami.ethernet.coalescedRxOrn            nan                       # average number of RxOrn's coalesced into each post
system.tsunami.ethernet.totalRxOrn                  0                       # total number of RxOrn written to ISR
system.tsunami.ethernet.coalescedTotal            nan                       # average number of interrupts coalesced into each post
system.tsunami.ethernet.postedInterrupts            0                       # number of posts to CPU
system.tsunami.ethernet.droppedPackets              0                       # number of packets dropped
system.switch_cpus0.kern.inst.arm                   0                       # number of arm instructions executed
system.switch_cpus0.kern.inst.quiesce               0                       # number of quiesce instructions executed
system.switch_cpus0.kern.inst.hwrei                 0                       # number of hwrei instructions executed
system.switch_cpus0.kern.mode_switch::kernel            0                       # number of protection mode switches
system.switch_cpus0.kern.mode_switch::user            0                       # number of protection mode switches
system.switch_cpus0.kern.mode_switch::idle            0                       # number of protection mode switches
system.switch_cpus0.kern.mode_good::kernel            0                      
system.switch_cpus0.kern.mode_good::user            0                      
system.switch_cpus0.kern.mode_good::idle            0                      
system.switch_cpus0.kern.mode_switch_good::kernel          nan                       # fraction of useful protection mode switches
system.switch_cpus0.kern.mode_switch_good::user          nan                       # fraction of useful protection mode switches
system.switch_cpus0.kern.mode_switch_good::idle          nan                       # fraction of useful protection mode switches
system.switch_cpus0.kern.mode_switch_good::total          nan                       # fraction of useful protection mode switches
system.switch_cpus0.kern.mode_ticks::kernel            0                       # number of ticks spent at the given mode
system.switch_cpus0.kern.mode_ticks::user            0                       # number of ticks spent at the given mode
system.switch_cpus0.kern.mode_ticks::idle            0                       # number of ticks spent at the given mode
system.switch_cpus0.kern.swap_context               0                       # number of times the context was actually changed
system.switch_cpus1.kern.inst.arm                   0                       # number of arm instructions executed
system.switch_cpus1.kern.inst.quiesce               0                       # number of quiesce instructions executed
system.switch_cpus1.kern.inst.hwrei                 0                       # number of hwrei instructions executed
system.switch_cpus1.kern.mode_switch::kernel            0                       # number of protection mode switches
system.switch_cpus1.kern.mode_switch::user            0                       # number of protection mode switches
system.switch_cpus1.kern.mode_switch::idle            0                       # number of protection mode switches
system.switch_cpus1.kern.mode_good::kernel            0                      
system.switch_cpus1.kern.mode_good::user            0                      
system.switch_cpus1.kern.mode_good::idle            0                      
system.switch_cpus1.kern.mode_switch_good::kernel          nan                       # fraction of useful protection mode switches
system.switch_cpus1.kern.mode_switch_good::user          nan                       # fraction of useful protection mode switches
system.switch_cpus1.kern.mode_switch_good::idle          nan                       # fraction of useful protection mode switches
system.switch_cpus1.kern.mode_switch_good::total          nan                       # fraction of useful protection mode switches
system.switch_cpus1.kern.mode_ticks::kernel            0                       # number of ticks spent at the given mode
system.switch_cpus1.kern.mode_ticks::user            0                       # number of ticks spent at the given mode
system.switch_cpus1.kern.mode_ticks::idle            0                       # number of ticks spent at the given mode
system.switch_cpus1.kern.swap_context               0                       # number of times the context was actually changed
system.switch_cpus2.kern.inst.arm                   0                       # number of arm instructions executed
system.switch_cpus2.kern.inst.quiesce               0                       # number of quiesce instructions executed
system.switch_cpus2.kern.inst.hwrei                 0                       # number of hwrei instructions executed
system.switch_cpus2.kern.mode_switch::kernel            0                       # number of protection mode switches
system.switch_cpus2.kern.mode_switch::user            0                       # number of protection mode switches
system.switch_cpus2.kern.mode_switch::idle            0                       # number of protection mode switches
system.switch_cpus2.kern.mode_good::kernel            0                      
system.switch_cpus2.kern.mode_good::user            0                      
system.switch_cpus2.kern.mode_good::idle            0                      
system.switch_cpus2.kern.mode_switch_good::kernel          nan                       # fraction of useful protection mode switches
system.switch_cpus2.kern.mode_switch_good::user          nan                       # fraction of useful protection mode switches
system.switch_cpus2.kern.mode_switch_good::idle          nan                       # fraction of useful protection mode switches
system.switch_cpus2.kern.mode_switch_good::total          nan                       # fraction of useful protection mode switches
system.switch_cpus2.kern.mode_ticks::kernel            0                       # number of ticks spent at the given mode
system.switch_cpus2.kern.mode_ticks::user            0                       # number of ticks spent at the given mode
system.switch_cpus2.kern.mode_ticks::idle            0                       # number of ticks spent at the given mode
system.switch_cpus2.kern.swap_context               0                       # number of times the context was actually changed
system.switch_cpus3.kern.inst.arm                   0                       # number of arm instructions executed
system.switch_cpus3.kern.inst.quiesce               0                       # number of quiesce instructions executed
system.switch_cpus3.kern.inst.hwrei                 0                       # number of hwrei instructions executed
system.switch_cpus3.kern.mode_switch::kernel            0                       # number of protection mode switches
system.switch_cpus3.kern.mode_switch::user            0                       # number of protection mode switches
system.switch_cpus3.kern.mode_switch::idle            0                       # number of protection mode switches
system.switch_cpus3.kern.mode_good::kernel            0                      
system.switch_cpus3.kern.mode_good::user            0                      
system.switch_cpus3.kern.mode_good::idle            0                      
system.switch_cpus3.kern.mode_switch_good::kernel          nan                       # fraction of useful protection mode switches
system.switch_cpus3.kern.mode_switch_good::user          nan                       # fraction of useful protection mode switches
system.switch_cpus3.kern.mode_switch_good::idle          nan                       # fraction of useful protection mode switches
system.switch_cpus3.kern.mode_switch_good::total          nan                       # fraction of useful protection mode switches
system.switch_cpus3.kern.mode_ticks::kernel            0                       # number of ticks spent at the given mode
system.switch_cpus3.kern.mode_ticks::user            0                       # number of ticks spent at the given mode
system.switch_cpus3.kern.mode_ticks::idle            0                       # number of ticks spent at the given mode
system.switch_cpus3.kern.swap_context               0                       # number of times the context was actually changed

---------- End Simulation Statistics   ----------
