
---------- Begin Simulation Statistics ----------
sim_seconds                                  0.000743                       # Number of seconds simulated
sim_ticks                                   742762500                       # Number of ticks simulated
final_tick                               2261994501000                       # Number of ticks from beginning of simulation (restored from checkpoints and never reset)
sim_freq                                 1000000000000                       # Frequency of simulated ticks
host_inst_rate                               42388026                       # Simulator instruction rate (inst/s)
host_op_rate                                 42387904                       # Simulator op (including micro ops) rate (op/s)
host_tick_rate                              267080715                       # Simulator tick rate (ticks/s)
host_mem_usage                                 741804                       # Number of bytes of host memory used
host_seconds                                     2.78                       # Real time elapsed on the host
sim_insts                                   117882197                       # Number of instructions simulated
sim_ops                                     117882197                       # Number of ops (including micro ops) simulated
system.voltage_domain.voltage                       1                       # Voltage in Volts
system.clk_domain.clock                          1000                       # Clock period in ticks
system.mem_ctrls.bytes_read::switch_cpus0.inst        73536                       # Number of bytes read from this memory
system.mem_ctrls.bytes_read::switch_cpus0.data        62272                       # Number of bytes read from this memory
system.mem_ctrls.bytes_read::switch_cpus1.inst        15552                       # Number of bytes read from this memory
system.mem_ctrls.bytes_read::switch_cpus1.data        49792                       # Number of bytes read from this memory
system.mem_ctrls.bytes_read::switch_cpus2.inst         1536                       # Number of bytes read from this memory
system.mem_ctrls.bytes_read::switch_cpus2.data         1216                       # Number of bytes read from this memory
system.mem_ctrls.bytes_read::switch_cpus3.inst        54272                       # Number of bytes read from this memory
system.mem_ctrls.bytes_read::switch_cpus3.data       450944                       # Number of bytes read from this memory
system.mem_ctrls.bytes_read::total             709120                       # Number of bytes read from this memory
system.mem_ctrls.bytes_inst_read::switch_cpus0.inst        73536                       # Number of instructions bytes read from this memory
system.mem_ctrls.bytes_inst_read::switch_cpus1.inst        15552                       # Number of instructions bytes read from this memory
system.mem_ctrls.bytes_inst_read::switch_cpus2.inst         1536                       # Number of instructions bytes read from this memory
system.mem_ctrls.bytes_inst_read::switch_cpus3.inst        54272                       # Number of instructions bytes read from this memory
system.mem_ctrls.bytes_inst_read::total        144896                       # Number of instructions bytes read from this memory
system.mem_ctrls.bytes_written::writebacks       407872                       # Number of bytes written to this memory
system.mem_ctrls.bytes_written::total          407872                       # Number of bytes written to this memory
system.mem_ctrls.num_reads::switch_cpus0.inst         1149                       # Number of read requests responded to by this memory
system.mem_ctrls.num_reads::switch_cpus0.data          973                       # Number of read requests responded to by this memory
system.mem_ctrls.num_reads::switch_cpus1.inst          243                       # Number of read requests responded to by this memory
system.mem_ctrls.num_reads::switch_cpus1.data          778                       # Number of read requests responded to by this memory
system.mem_ctrls.num_reads::switch_cpus2.inst           24                       # Number of read requests responded to by this memory
system.mem_ctrls.num_reads::switch_cpus2.data           19                       # Number of read requests responded to by this memory
system.mem_ctrls.num_reads::switch_cpus3.inst          848                       # Number of read requests responded to by this memory
system.mem_ctrls.num_reads::switch_cpus3.data         7046                       # Number of read requests responded to by this memory
system.mem_ctrls.num_reads::total               11080                       # Number of read requests responded to by this memory
system.mem_ctrls.num_writes::writebacks          6373                       # Number of write requests responded to by this memory
system.mem_ctrls.num_writes::total               6373                       # Number of write requests responded to by this memory
system.mem_ctrls.bw_read::switch_cpus0.inst     99003383                       # Total read bandwidth from this memory (bytes/s)
system.mem_ctrls.bw_read::switch_cpus0.data     83838374                       # Total read bandwidth from this memory (bytes/s)
system.mem_ctrls.bw_read::switch_cpus1.inst     20938052                       # Total read bandwidth from this memory (bytes/s)
system.mem_ctrls.bw_read::switch_cpus1.data     67036233                       # Total read bandwidth from this memory (bytes/s)
system.mem_ctrls.bw_read::switch_cpus2.inst      2067956                       # Total read bandwidth from this memory (bytes/s)
system.mem_ctrls.bw_read::switch_cpus2.data      1637132                       # Total read bandwidth from this memory (bytes/s)
system.mem_ctrls.bw_read::switch_cpus3.inst     73067771                       # Total read bandwidth from this memory (bytes/s)
system.mem_ctrls.bw_read::switch_cpus3.data    607117349                       # Total read bandwidth from this memory (bytes/s)
system.mem_ctrls.bw_read::total             954706249                       # Total read bandwidth from this memory (bytes/s)
system.mem_ctrls.bw_inst_read::switch_cpus0.inst     99003383                       # Instruction read bandwidth from this memory (bytes/s)
system.mem_ctrls.bw_inst_read::switch_cpus1.inst     20938052                       # Instruction read bandwidth from this memory (bytes/s)
system.mem_ctrls.bw_inst_read::switch_cpus2.inst      2067956                       # Instruction read bandwidth from this memory (bytes/s)
system.mem_ctrls.bw_inst_read::switch_cpus3.inst     73067771                       # Instruction read bandwidth from this memory (bytes/s)
system.mem_ctrls.bw_inst_read::total        195077161                       # Instruction read bandwidth from this memory (bytes/s)
system.mem_ctrls.bw_write::writebacks       549128423                       # Write bandwidth from this memory (bytes/s)
system.mem_ctrls.bw_write::total            549128423                       # Write bandwidth from this memory (bytes/s)
system.mem_ctrls.bw_total::writebacks       549128423                       # Total bandwidth to/from this memory (bytes/s)
system.mem_ctrls.bw_total::switch_cpus0.inst     99003383                       # Total bandwidth to/from this memory (bytes/s)
system.mem_ctrls.bw_total::switch_cpus0.data     83838374                       # Total bandwidth to/from this memory (bytes/s)
system.mem_ctrls.bw_total::switch_cpus1.inst     20938052                       # Total bandwidth to/from this memory (bytes/s)
system.mem_ctrls.bw_total::switch_cpus1.data     67036233                       # Total bandwidth to/from this memory (bytes/s)
system.mem_ctrls.bw_total::switch_cpus2.inst      2067956                       # Total bandwidth to/from this memory (bytes/s)
system.mem_ctrls.bw_total::switch_cpus2.data      1637132                       # Total bandwidth to/from this memory (bytes/s)
system.mem_ctrls.bw_total::switch_cpus3.inst     73067771                       # Total bandwidth to/from this memory (bytes/s)
system.mem_ctrls.bw_total::switch_cpus3.data    607117349                       # Total bandwidth to/from this memory (bytes/s)
system.mem_ctrls.bw_total::total           1503834671                       # Total bandwidth to/from this memory (bytes/s)
system.mem_ctrls.readReqs                       11080                       # Number of read requests accepted
system.mem_ctrls.writeReqs                       6373                       # Number of write requests accepted
system.mem_ctrls.readBursts                     11080                       # Number of DRAM read bursts, including those serviced by the write queue
system.mem_ctrls.writeBursts                     6373                       # Number of DRAM write bursts, including those merged in the write queue
system.mem_ctrls.bytesReadDRAM                 707968                       # Total number of bytes read from DRAM
system.mem_ctrls.bytesReadWrQ                    1152                       # Total number of bytes read from write queue
system.mem_ctrls.bytesWritten                  405888                       # Total number of bytes written to DRAM
system.mem_ctrls.bytesReadSys                  709120                       # Total read bytes from the system interface side
system.mem_ctrls.bytesWrittenSys               407872                       # Total written bytes from the system interface side
system.mem_ctrls.servicedByWrQ                     18                       # Number of DRAM read bursts serviced by the write queue
system.mem_ctrls.mergedWrBursts                     0                       # Number of DRAM write bursts merged with an existing one
system.mem_ctrls.neitherReadNorWriteReqs           80                       # Number of requests that are neither read nor write
system.mem_ctrls.perBankRdBursts::0               479                       # Per bank write bursts
system.mem_ctrls.perBankRdBursts::1               780                       # Per bank write bursts
system.mem_ctrls.perBankRdBursts::2               502                       # Per bank write bursts
system.mem_ctrls.perBankRdBursts::3               401                       # Per bank write bursts
system.mem_ctrls.perBankRdBursts::4               388                       # Per bank write bursts
system.mem_ctrls.perBankRdBursts::5               814                       # Per bank write bursts
system.mem_ctrls.perBankRdBursts::6               736                       # Per bank write bursts
system.mem_ctrls.perBankRdBursts::7               744                       # Per bank write bursts
system.mem_ctrls.perBankRdBursts::8               490                       # Per bank write bursts
system.mem_ctrls.perBankRdBursts::9              1113                       # Per bank write bursts
system.mem_ctrls.perBankRdBursts::10              378                       # Per bank write bursts
system.mem_ctrls.perBankRdBursts::11              730                       # Per bank write bursts
system.mem_ctrls.perBankRdBursts::12              938                       # Per bank write bursts
system.mem_ctrls.perBankRdBursts::13              872                       # Per bank write bursts
system.mem_ctrls.perBankRdBursts::14              946                       # Per bank write bursts
system.mem_ctrls.perBankRdBursts::15              751                       # Per bank write bursts
system.mem_ctrls.perBankWrBursts::0               329                       # Per bank write bursts
system.mem_ctrls.perBankWrBursts::1               534                       # Per bank write bursts
system.mem_ctrls.perBankWrBursts::2                38                       # Per bank write bursts
system.mem_ctrls.perBankWrBursts::3               468                       # Per bank write bursts
system.mem_ctrls.perBankWrBursts::4               294                       # Per bank write bursts
system.mem_ctrls.perBankWrBursts::5               402                       # Per bank write bursts
system.mem_ctrls.perBankWrBursts::6               494                       # Per bank write bursts
system.mem_ctrls.perBankWrBursts::7               650                       # Per bank write bursts
system.mem_ctrls.perBankWrBursts::8               248                       # Per bank write bursts
system.mem_ctrls.perBankWrBursts::9               458                       # Per bank write bursts
system.mem_ctrls.perBankWrBursts::10              406                       # Per bank write bursts
system.mem_ctrls.perBankWrBursts::11              210                       # Per bank write bursts
system.mem_ctrls.perBankWrBursts::12              405                       # Per bank write bursts
system.mem_ctrls.perBankWrBursts::13              501                       # Per bank write bursts
system.mem_ctrls.perBankWrBursts::14              565                       # Per bank write bursts
system.mem_ctrls.perBankWrBursts::15              340                       # Per bank write bursts
system.mem_ctrls.numRdRetry                         0                       # Number of times read queue was full causing retry
system.mem_ctrls.numWrRetry                         0                       # Number of times write queue was full causing retry
system.mem_ctrls.totGap                     740478500                       # Total gap between requests
system.mem_ctrls.readPktSize::0                     0                       # Read request sizes (log2)
system.mem_ctrls.readPktSize::1                     0                       # Read request sizes (log2)
system.mem_ctrls.readPktSize::2                     0                       # Read request sizes (log2)
system.mem_ctrls.readPktSize::3                     0                       # Read request sizes (log2)
system.mem_ctrls.readPktSize::4                     0                       # Read request sizes (log2)
system.mem_ctrls.readPktSize::5                     0                       # Read request sizes (log2)
system.mem_ctrls.readPktSize::6                 11080                       # Read request sizes (log2)
system.mem_ctrls.writePktSize::0                    0                       # Write request sizes (log2)
system.mem_ctrls.writePktSize::1                    0                       # Write request sizes (log2)
system.mem_ctrls.writePktSize::2                    0                       # Write request sizes (log2)
system.mem_ctrls.writePktSize::3                    0                       # Write request sizes (log2)
system.mem_ctrls.writePktSize::4                    0                       # Write request sizes (log2)
system.mem_ctrls.writePktSize::5                    0                       # Write request sizes (log2)
system.mem_ctrls.writePktSize::6                 6373                       # Write request sizes (log2)
system.mem_ctrls.rdQLenPdf::0                    4959                       # What read queue length does an incoming req see
system.mem_ctrls.rdQLenPdf::1                    2885                       # What read queue length does an incoming req see
system.mem_ctrls.rdQLenPdf::2                    1859                       # What read queue length does an incoming req see
system.mem_ctrls.rdQLenPdf::3                    1329                       # What read queue length does an incoming req see
system.mem_ctrls.rdQLenPdf::4                      18                       # What read queue length does an incoming req see
system.mem_ctrls.rdQLenPdf::5                       5                       # What read queue length does an incoming req see
system.mem_ctrls.rdQLenPdf::6                       4                       # What read queue length does an incoming req see
system.mem_ctrls.rdQLenPdf::7                       1                       # What read queue length does an incoming req see
system.mem_ctrls.rdQLenPdf::8                       2                       # What read queue length does an incoming req see
system.mem_ctrls.rdQLenPdf::9                       0                       # What read queue length does an incoming req see
system.mem_ctrls.rdQLenPdf::10                      0                       # What read queue length does an incoming req see
system.mem_ctrls.rdQLenPdf::11                      0                       # What read queue length does an incoming req see
system.mem_ctrls.rdQLenPdf::12                      0                       # What read queue length does an incoming req see
system.mem_ctrls.rdQLenPdf::13                      0                       # What read queue length does an incoming req see
system.mem_ctrls.rdQLenPdf::14                      0                       # What read queue length does an incoming req see
system.mem_ctrls.rdQLenPdf::15                      0                       # What read queue length does an incoming req see
system.mem_ctrls.rdQLenPdf::16                      0                       # What read queue length does an incoming req see
system.mem_ctrls.rdQLenPdf::17                      0                       # What read queue length does an incoming req see
system.mem_ctrls.rdQLenPdf::18                      0                       # What read queue length does an incoming req see
system.mem_ctrls.rdQLenPdf::19                      0                       # What read queue length does an incoming req see
system.mem_ctrls.rdQLenPdf::20                      0                       # What read queue length does an incoming req see
system.mem_ctrls.rdQLenPdf::21                      0                       # What read queue length does an incoming req see
system.mem_ctrls.rdQLenPdf::22                      0                       # What read queue length does an incoming req see
system.mem_ctrls.rdQLenPdf::23                      0                       # What read queue length does an incoming req see
system.mem_ctrls.rdQLenPdf::24                      0                       # What read queue length does an incoming req see
system.mem_ctrls.rdQLenPdf::25                      0                       # What read queue length does an incoming req see
system.mem_ctrls.rdQLenPdf::26                      0                       # What read queue length does an incoming req see
system.mem_ctrls.rdQLenPdf::27                      0                       # What read queue length does an incoming req see
system.mem_ctrls.rdQLenPdf::28                      0                       # What read queue length does an incoming req see
system.mem_ctrls.rdQLenPdf::29                      0                       # What read queue length does an incoming req see
system.mem_ctrls.rdQLenPdf::30                      0                       # What read queue length does an incoming req see
system.mem_ctrls.rdQLenPdf::31                      0                       # What read queue length does an incoming req see
system.mem_ctrls.wrQLenPdf::0                       1                       # What write queue length does an incoming req see
system.mem_ctrls.wrQLenPdf::1                       1                       # What write queue length does an incoming req see
system.mem_ctrls.wrQLenPdf::2                       1                       # What write queue length does an incoming req see
system.mem_ctrls.wrQLenPdf::3                       1                       # What write queue length does an incoming req see
system.mem_ctrls.wrQLenPdf::4                       1                       # What write queue length does an incoming req see
system.mem_ctrls.wrQLenPdf::5                       1                       # What write queue length does an incoming req see
system.mem_ctrls.wrQLenPdf::6                       1                       # What write queue length does an incoming req see
system.mem_ctrls.wrQLenPdf::7                       1                       # What write queue length does an incoming req see
system.mem_ctrls.wrQLenPdf::8                       1                       # What write queue length does an incoming req see
system.mem_ctrls.wrQLenPdf::9                       1                       # What write queue length does an incoming req see
system.mem_ctrls.wrQLenPdf::10                      1                       # What write queue length does an incoming req see
system.mem_ctrls.wrQLenPdf::11                      1                       # What write queue length does an incoming req see
system.mem_ctrls.wrQLenPdf::12                      1                       # What write queue length does an incoming req see
system.mem_ctrls.wrQLenPdf::13                      1                       # What write queue length does an incoming req see
system.mem_ctrls.wrQLenPdf::14                      1                       # What write queue length does an incoming req see
system.mem_ctrls.wrQLenPdf::15                     51                       # What write queue length does an incoming req see
system.mem_ctrls.wrQLenPdf::16                     53                       # What write queue length does an incoming req see
system.mem_ctrls.wrQLenPdf::17                    182                       # What write queue length does an incoming req see
system.mem_ctrls.wrQLenPdf::18                    292                       # What write queue length does an incoming req see
system.mem_ctrls.wrQLenPdf::19                    362                       # What write queue length does an incoming req see
system.mem_ctrls.wrQLenPdf::20                    393                       # What write queue length does an incoming req see
system.mem_ctrls.wrQLenPdf::21                    398                       # What write queue length does an incoming req see
system.mem_ctrls.wrQLenPdf::22                    405                       # What write queue length does an incoming req see
system.mem_ctrls.wrQLenPdf::23                    401                       # What write queue length does an incoming req see
system.mem_ctrls.wrQLenPdf::24                    411                       # What write queue length does an incoming req see
system.mem_ctrls.wrQLenPdf::25                    416                       # What write queue length does an incoming req see
system.mem_ctrls.wrQLenPdf::26                    460                       # What write queue length does an incoming req see
system.mem_ctrls.wrQLenPdf::27                    424                       # What write queue length does an incoming req see
system.mem_ctrls.wrQLenPdf::28                    426                       # What write queue length does an incoming req see
system.mem_ctrls.wrQLenPdf::29                    482                       # What write queue length does an incoming req see
system.mem_ctrls.wrQLenPdf::30                    412                       # What write queue length does an incoming req see
system.mem_ctrls.wrQLenPdf::31                    398                       # What write queue length does an incoming req see
system.mem_ctrls.wrQLenPdf::32                    388                       # What write queue length does an incoming req see
system.mem_ctrls.wrQLenPdf::33                      2                       # What write queue length does an incoming req see
system.mem_ctrls.wrQLenPdf::34                      2                       # What write queue length does an incoming req see
system.mem_ctrls.wrQLenPdf::35                      0                       # What write queue length does an incoming req see
system.mem_ctrls.wrQLenPdf::36                      0                       # What write queue length does an incoming req see
system.mem_ctrls.wrQLenPdf::37                      0                       # What write queue length does an incoming req see
system.mem_ctrls.wrQLenPdf::38                      0                       # What write queue length does an incoming req see
system.mem_ctrls.wrQLenPdf::39                      0                       # What write queue length does an incoming req see
system.mem_ctrls.wrQLenPdf::40                      0                       # What write queue length does an incoming req see
system.mem_ctrls.wrQLenPdf::41                      0                       # What write queue length does an incoming req see
system.mem_ctrls.wrQLenPdf::42                      0                       # What write queue length does an incoming req see
system.mem_ctrls.wrQLenPdf::43                      0                       # What write queue length does an incoming req see
system.mem_ctrls.wrQLenPdf::44                      0                       # What write queue length does an incoming req see
system.mem_ctrls.wrQLenPdf::45                      0                       # What write queue length does an incoming req see
system.mem_ctrls.wrQLenPdf::46                      0                       # What write queue length does an incoming req see
system.mem_ctrls.wrQLenPdf::47                      0                       # What write queue length does an incoming req see
system.mem_ctrls.wrQLenPdf::48                      0                       # What write queue length does an incoming req see
system.mem_ctrls.wrQLenPdf::49                      0                       # What write queue length does an incoming req see
system.mem_ctrls.wrQLenPdf::50                      0                       # What write queue length does an incoming req see
system.mem_ctrls.wrQLenPdf::51                      0                       # What write queue length does an incoming req see
system.mem_ctrls.wrQLenPdf::52                      0                       # What write queue length does an incoming req see
system.mem_ctrls.wrQLenPdf::53                      0                       # What write queue length does an incoming req see
system.mem_ctrls.wrQLenPdf::54                      0                       # What write queue length does an incoming req see
system.mem_ctrls.wrQLenPdf::55                      0                       # What write queue length does an incoming req see
system.mem_ctrls.wrQLenPdf::56                      0                       # What write queue length does an incoming req see
system.mem_ctrls.wrQLenPdf::57                      0                       # What write queue length does an incoming req see
system.mem_ctrls.wrQLenPdf::58                      0                       # What write queue length does an incoming req see
system.mem_ctrls.wrQLenPdf::59                      0                       # What write queue length does an incoming req see
system.mem_ctrls.wrQLenPdf::60                      0                       # What write queue length does an incoming req see
system.mem_ctrls.wrQLenPdf::61                      0                       # What write queue length does an incoming req see
system.mem_ctrls.wrQLenPdf::62                      0                       # What write queue length does an incoming req see
system.mem_ctrls.wrQLenPdf::63                      0                       # What write queue length does an incoming req see
system.mem_ctrls.bytesPerActivate::samples         4117                       # Bytes accessed per row activation
system.mem_ctrls.bytesPerActivate::mean    270.488220                       # Bytes accessed per row activation
system.mem_ctrls.bytesPerActivate::gmean   164.518126                       # Bytes accessed per row activation
system.mem_ctrls.bytesPerActivate::stdev   295.591581                       # Bytes accessed per row activation
system.mem_ctrls.bytesPerActivate::0-127         1651     40.10%     40.10% # Bytes accessed per row activation
system.mem_ctrls.bytesPerActivate::128-255          994     24.14%     64.25% # Bytes accessed per row activation
system.mem_ctrls.bytesPerActivate::256-383          490     11.90%     76.15% # Bytes accessed per row activation
system.mem_ctrls.bytesPerActivate::384-511          226      5.49%     81.64% # Bytes accessed per row activation
system.mem_ctrls.bytesPerActivate::512-639          173      4.20%     85.84% # Bytes accessed per row activation
system.mem_ctrls.bytesPerActivate::640-767           91      2.21%     88.05% # Bytes accessed per row activation
system.mem_ctrls.bytesPerActivate::768-895           99      2.40%     90.45% # Bytes accessed per row activation
system.mem_ctrls.bytesPerActivate::896-1023           47      1.14%     91.60% # Bytes accessed per row activation
system.mem_ctrls.bytesPerActivate::1024-1151          346      8.40%    100.00% # Bytes accessed per row activation
system.mem_ctrls.bytesPerActivate::total         4117                       # Bytes accessed per row activation
system.mem_ctrls.rdPerTurnAround::samples          388                       # Reads before turning the bus around for writes
system.mem_ctrls.rdPerTurnAround::mean      28.466495                       # Reads before turning the bus around for writes
system.mem_ctrls.rdPerTurnAround::gmean     25.593539                       # Reads before turning the bus around for writes
system.mem_ctrls.rdPerTurnAround::stdev     15.573993                       # Reads before turning the bus around for writes
system.mem_ctrls.rdPerTurnAround::8-11              7      1.80%      1.80% # Reads before turning the bus around for writes
system.mem_ctrls.rdPerTurnAround::12-15            18      4.64%      6.44% # Reads before turning the bus around for writes
system.mem_ctrls.rdPerTurnAround::16-19            67     17.27%     23.71% # Reads before turning the bus around for writes
system.mem_ctrls.rdPerTurnAround::20-23            78     20.10%     43.81% # Reads before turning the bus around for writes
system.mem_ctrls.rdPerTurnAround::24-27            64     16.49%     60.31% # Reads before turning the bus around for writes
system.mem_ctrls.rdPerTurnAround::28-31            55     14.18%     74.48% # Reads before turning the bus around for writes
system.mem_ctrls.rdPerTurnAround::32-35            29      7.47%     81.96% # Reads before turning the bus around for writes
system.mem_ctrls.rdPerTurnAround::36-39            14      3.61%     85.57% # Reads before turning the bus around for writes
system.mem_ctrls.rdPerTurnAround::40-43             9      2.32%     87.89% # Reads before turning the bus around for writes
system.mem_ctrls.rdPerTurnAround::44-47             8      2.06%     89.95% # Reads before turning the bus around for writes
system.mem_ctrls.rdPerTurnAround::48-51             7      1.80%     91.75% # Reads before turning the bus around for writes
system.mem_ctrls.rdPerTurnAround::52-55             6      1.55%     93.30% # Reads before turning the bus around for writes
system.mem_ctrls.rdPerTurnAround::56-59             7      1.80%     95.10% # Reads before turning the bus around for writes
system.mem_ctrls.rdPerTurnAround::60-63             3      0.77%     95.88% # Reads before turning the bus around for writes
system.mem_ctrls.rdPerTurnAround::64-67             5      1.29%     97.16% # Reads before turning the bus around for writes
system.mem_ctrls.rdPerTurnAround::68-71             1      0.26%     97.42% # Reads before turning the bus around for writes
system.mem_ctrls.rdPerTurnAround::72-75             1      0.26%     97.68% # Reads before turning the bus around for writes
system.mem_ctrls.rdPerTurnAround::76-79             1      0.26%     97.94% # Reads before turning the bus around for writes
system.mem_ctrls.rdPerTurnAround::84-87             4      1.03%     98.97% # Reads before turning the bus around for writes
system.mem_ctrls.rdPerTurnAround::92-95             1      0.26%     99.23% # Reads before turning the bus around for writes
system.mem_ctrls.rdPerTurnAround::104-107            1      0.26%     99.48% # Reads before turning the bus around for writes
system.mem_ctrls.rdPerTurnAround::120-123            2      0.52%    100.00% # Reads before turning the bus around for writes
system.mem_ctrls.rdPerTurnAround::total           388                       # Reads before turning the bus around for writes
system.mem_ctrls.wrPerTurnAround::samples          388                       # Writes before turning the bus around for reads
system.mem_ctrls.wrPerTurnAround::mean      16.345361                       # Writes before turning the bus around for reads
system.mem_ctrls.wrPerTurnAround::gmean     16.322975                       # Writes before turning the bus around for reads
system.mem_ctrls.wrPerTurnAround::stdev      0.894603                       # Writes before turning the bus around for reads
system.mem_ctrls.wrPerTurnAround::16              332     85.57%     85.57% # Writes before turning the bus around for reads
system.mem_ctrls.wrPerTurnAround::17                3      0.77%     86.34% # Writes before turning the bus around for reads
system.mem_ctrls.wrPerTurnAround::18               35      9.02%     95.36% # Writes before turning the bus around for reads
system.mem_ctrls.wrPerTurnAround::19               12      3.09%     98.45% # Writes before turning the bus around for reads
system.mem_ctrls.wrPerTurnAround::20                5      1.29%     99.74% # Writes before turning the bus around for reads
system.mem_ctrls.wrPerTurnAround::21                1      0.26%    100.00% # Writes before turning the bus around for reads
system.mem_ctrls.wrPerTurnAround::total           388                       # Writes before turning the bus around for reads
system.mem_ctrls.totQLat                    228668750                       # Total ticks spent queuing
system.mem_ctrls.totMemAccLat               436081250                       # Total ticks spent from burst creation until serviced by the DRAM
system.mem_ctrls.totBusLat                   55310000                       # Total ticks spent in databus transfers
system.mem_ctrls.avgQLat                     20671.56                       # Average queueing delay per DRAM burst
system.mem_ctrls.avgBusLat                    5000.00                       # Average bus latency per DRAM burst
system.mem_ctrls.avgMemAccLat                39421.56                       # Average memory access latency per DRAM burst
system.mem_ctrls.avgRdBW                       953.16                       # Average DRAM read bandwidth in MiByte/s
system.mem_ctrls.avgWrBW                       546.46                       # Average achieved write bandwidth in MiByte/s
system.mem_ctrls.avgRdBWSys                    954.71                       # Average system read bandwidth in MiByte/s
system.mem_ctrls.avgWrBWSys                    549.13                       # Average system write bandwidth in MiByte/s
system.mem_ctrls.peakBW                      12800.00                       # Theoretical peak bandwidth in MiByte/s
system.mem_ctrls.busUtil                        11.72                       # Data bus utilization in percentage
system.mem_ctrls.busUtilRead                     7.45                       # Data bus utilization in percentage for reads
system.mem_ctrls.busUtilWrite                    4.27                       # Data bus utilization in percentage for writes
system.mem_ctrls.avgRdQLen                       1.85                       # Average read queue length when enqueuing
system.mem_ctrls.avgWrQLen                      25.80                       # Average write queue length when enqueuing
system.mem_ctrls.readRowHits                     9028                       # Number of row buffer hits during reads
system.mem_ctrls.writeRowHits                    4256                       # Number of row buffer hits during writes
system.mem_ctrls.readRowHitRate                 81.61                       # Row buffer hit rate for reads
system.mem_ctrls.writeRowHitRate                66.78                       # Row buffer hit rate for writes
system.mem_ctrls.avgGap                      42427.00                       # Average gap between requests
system.mem_ctrls.pageHitRate                    76.19                       # Row buffer hit rate, read and write combined
system.mem_ctrls_0.actEnergy                 15104880                       # Energy for activate commands per rank (pJ)
system.mem_ctrls_0.preEnergy                  8241750                       # Energy for precharge commands per rank (pJ)
system.mem_ctrls_0.readEnergy                37775400                       # Energy for read commands per rank (pJ)
system.mem_ctrls_0.writeEnergy               20794320                       # Energy for write commands per rank (pJ)
system.mem_ctrls_0.refreshEnergy             48313200                       # Energy for refresh commands per rank (pJ)
system.mem_ctrls_0.actBackEnergy            457592580                       # Energy for active background per rank (pJ)
system.mem_ctrls_0.preBackEnergy             42575250                       # Energy for precharge background per rank (pJ)
system.mem_ctrls_0.totalEnergy              630397380                       # Total energy per rank (pJ)
system.mem_ctrls_0.averagePower            851.941598                       # Core power per rank (mW)
system.mem_ctrls_0.memoryStateTime::IDLE     67611750                       # Time in different power states
system.mem_ctrls_0.memoryStateTime::REF      24700000                       # Time in different power states
system.mem_ctrls_0.memoryStateTime::PRE_PDN            0                       # Time in different power states
system.mem_ctrls_0.memoryStateTime::ACT     647945750                       # Time in different power states
system.mem_ctrls_0.memoryStateTime::ACT_PDN            0                       # Time in different power states
system.mem_ctrls_1.actEnergy                 16019640                       # Energy for activate commands per rank (pJ)
system.mem_ctrls_1.preEnergy                  8740875                       # Energy for precharge commands per rank (pJ)
system.mem_ctrls_1.readEnergy                48477000                       # Energy for read commands per rank (pJ)
system.mem_ctrls_1.writeEnergy               20301840                       # Energy for write commands per rank (pJ)
system.mem_ctrls_1.refreshEnergy             48313200                       # Energy for refresh commands per rank (pJ)
system.mem_ctrls_1.actBackEnergy            453055095                       # Energy for active background per rank (pJ)
system.mem_ctrls_1.preBackEnergy             46555500                       # Energy for precharge background per rank (pJ)
system.mem_ctrls_1.totalEnergy              641463150                       # Total energy per rank (pJ)
system.mem_ctrls_1.averagePower            866.896276                       # Core power per rank (mW)
system.mem_ctrls_1.memoryStateTime::IDLE     73658000                       # Time in different power states
system.mem_ctrls_1.memoryStateTime::REF      24700000                       # Time in different power states
system.mem_ctrls_1.memoryStateTime::PRE_PDN            0                       # Time in different power states
system.mem_ctrls_1.memoryStateTime::ACT     641609500                       # Time in different power states
system.mem_ctrls_1.memoryStateTime::ACT_PDN            0                       # Time in different power states
system.cpu_voltage_domain.voltage                   1                       # Voltage in Volts
system.cpu_clk_domain.clock                       500                       # Clock period in ticks
system.cpu0.dtb.fetch_hits                          0                       # ITB hits
system.cpu0.dtb.fetch_misses                        0                       # ITB misses
system.cpu0.dtb.fetch_acv                           0                       # ITB acv
system.cpu0.dtb.fetch_accesses                      0                       # ITB accesses
system.cpu0.dtb.read_hits                           0                       # DTB read hits
system.cpu0.dtb.read_misses                         0                       # DTB read misses
system.cpu0.dtb.read_acv                            0                       # DTB read access violations
system.cpu0.dtb.read_accesses                       0                       # DTB read accesses
system.cpu0.dtb.write_hits                          0                       # DTB write hits
system.cpu0.dtb.write_misses                        0                       # DTB write misses
system.cpu0.dtb.write_acv                           0                       # DTB write access violations
system.cpu0.dtb.write_accesses                      0                       # DTB write accesses
system.cpu0.dtb.data_hits                           0                       # DTB hits
system.cpu0.dtb.data_misses                         0                       # DTB misses
system.cpu0.dtb.data_acv                            0                       # DTB access violations
system.cpu0.dtb.data_accesses                       0                       # DTB accesses
system.cpu0.itb.fetch_hits                          0                       # ITB hits
system.cpu0.itb.fetch_misses                        0                       # ITB misses
system.cpu0.itb.fetch_acv                           0                       # ITB acv
system.cpu0.itb.fetch_accesses                      0                       # ITB accesses
system.cpu0.itb.read_hits                           0                       # DTB read hits
system.cpu0.itb.read_misses                         0                       # DTB read misses
system.cpu0.itb.read_acv                            0                       # DTB read access violations
system.cpu0.itb.read_accesses                       0                       # DTB read accesses
system.cpu0.itb.write_hits                          0                       # DTB write hits
system.cpu0.itb.write_misses                        0                       # DTB write misses
system.cpu0.itb.write_acv                           0                       # DTB write access violations
system.cpu0.itb.write_accesses                      0                       # DTB write accesses
system.cpu0.itb.data_hits                           0                       # DTB hits
system.cpu0.itb.data_misses                         0                       # DTB misses
system.cpu0.itb.data_acv                            0                       # DTB access violations
system.cpu0.itb.data_accesses                       0                       # DTB accesses
system.cpu0.numCycles                               0                       # number of cpu cycles simulated
system.cpu0.numWorkItemsStarted                     0                       # number of work items this cpu started
system.cpu0.numWorkItemsCompleted                   0                       # number of work items this cpu completed
system.cpu0.committedInsts                          0                       # Number of instructions committed
system.cpu0.committedOps                            0                       # Number of ops (including micro ops) committed
system.cpu0.num_int_alu_accesses                    0                       # Number of integer alu accesses
system.cpu0.num_fp_alu_accesses                     0                       # Number of float alu accesses
system.cpu0.num_func_calls                          0                       # number of times a function call or return occured
system.cpu0.num_conditional_control_insts            0                       # number of instructions that are conditional controls
system.cpu0.num_int_insts                           0                       # number of integer instructions
system.cpu0.num_fp_insts                            0                       # number of float instructions
system.cpu0.num_int_register_reads                  0                       # number of times the integer registers were read
system.cpu0.num_int_register_writes                 0                       # number of times the integer registers were written
system.cpu0.num_fp_register_reads                   0                       # number of times the floating registers were read
system.cpu0.num_fp_register_writes                  0                       # number of times the floating registers were written
system.cpu0.num_mem_refs                            0                       # number of memory refs
system.cpu0.num_load_insts                          0                       # Number of load instructions
system.cpu0.num_store_insts                         0                       # Number of store instructions
system.cpu0.num_idle_cycles                         0                       # Number of idle cycles
system.cpu0.num_busy_cycles                         0                       # Number of busy cycles
system.cpu0.not_idle_fraction                       1                       # Percentage of non-idle cycles
system.cpu0.idle_fraction                           0                       # Percentage of idle cycles
system.cpu0.op_class::No_OpClass                    0                       # Class of executed instruction
system.cpu0.op_class::IntAlu                        0                       # Class of executed instruction
system.cpu0.op_class::IntMult                       0                       # Class of executed instruction
system.cpu0.op_class::IntDiv                        0                       # Class of executed instruction
system.cpu0.op_class::FloatAdd                      0                       # Class of executed instruction
system.cpu0.op_class::FloatCmp                      0                       # Class of executed instruction
system.cpu0.op_class::FloatCvt                      0                       # Class of executed instruction
system.cpu0.op_class::FloatMult                     0                       # Class of executed instruction
system.cpu0.op_class::FloatDiv                      0                       # Class of executed instruction
system.cpu0.op_class::FloatSqrt                     0                       # Class of executed instruction
system.cpu0.op_class::SimdAdd                       0                       # Class of executed instruction
system.cpu0.op_class::SimdAddAcc                    0                       # Class of executed instruction
system.cpu0.op_class::SimdAlu                       0                       # Class of executed instruction
system.cpu0.op_class::SimdCmp                       0                       # Class of executed instruction
system.cpu0.op_class::SimdCvt                       0                       # Class of executed instruction
system.cpu0.op_class::SimdMisc                      0                       # Class of executed instruction
system.cpu0.op_class::SimdMult                      0                       # Class of executed instruction
system.cpu0.op_class::SimdMultAcc                   0                       # Class of executed instruction
system.cpu0.op_class::SimdShift                     0                       # Class of executed instruction
system.cpu0.op_class::SimdShiftAcc                  0                       # Class of executed instruction
system.cpu0.op_class::SimdSqrt                      0                       # Class of executed instruction
system.cpu0.op_class::SimdFloatAdd                  0                       # Class of executed instruction
system.cpu0.op_class::SimdFloatAlu                  0                       # Class of executed instruction
system.cpu0.op_class::SimdFloatCmp                  0                       # Class of executed instruction
system.cpu0.op_class::SimdFloatCvt                  0                       # Class of executed instruction
system.cpu0.op_class::SimdFloatDiv                  0                       # Class of executed instruction
system.cpu0.op_class::SimdFloatMisc                 0                       # Class of executed instruction
system.cpu0.op_class::SimdFloatMult                 0                       # Class of executed instruction
system.cpu0.op_class::SimdFloatMultAcc              0                       # Class of executed instruction
system.cpu0.op_class::SimdFloatSqrt                 0                       # Class of executed instruction
system.cpu0.op_class::MemRead                       0                       # Class of executed instruction
system.cpu0.op_class::MemWrite                      0                       # Class of executed instruction
system.cpu0.op_class::IprAccess                     0                       # Class of executed instruction
system.cpu0.op_class::InstPrefetch                  0                       # Class of executed instruction
system.cpu0.op_class::total                         0                       # Class of executed instruction
system.cpu0.kern.inst.arm                           0                       # number of arm instructions executed
system.cpu0.kern.inst.quiesce                       3                       # number of quiesce instructions executed
system.cpu0.kern.inst.hwrei                       597                       # number of hwrei instructions executed
system.cpu0.kern.ipl_count::0                     168     46.28%     46.28% # number of times we switched to this ipl
system.cpu0.kern.ipl_count::22                      1      0.28%     46.56% # number of times we switched to this ipl
system.cpu0.kern.ipl_count::30                      1      0.28%     46.83% # number of times we switched to this ipl
system.cpu0.kern.ipl_count::31                    193     53.17%    100.00% # number of times we switched to this ipl
system.cpu0.kern.ipl_count::total                 363                       # number of times we switched to this ipl
system.cpu0.kern.ipl_good::0                      168     49.85%     49.85% # number of times we switched to this ipl from a different ipl
system.cpu0.kern.ipl_good::22                       1      0.30%     50.15% # number of times we switched to this ipl from a different ipl
system.cpu0.kern.ipl_good::30                       1      0.30%     50.45% # number of times we switched to this ipl from a different ipl
system.cpu0.kern.ipl_good::31                     167     49.55%    100.00% # number of times we switched to this ipl from a different ipl
system.cpu0.kern.ipl_good::total                  337                       # number of times we switched to this ipl from a different ipl
system.cpu0.kern.ipl_ticks::0               437787500     91.48%     91.48% # number of cycles we spent at this ipl
system.cpu0.kern.ipl_ticks::22                 515500      0.11%     91.59% # number of cycles we spent at this ipl
system.cpu0.kern.ipl_ticks::30                1393500      0.29%     91.88% # number of cycles we spent at this ipl
system.cpu0.kern.ipl_ticks::31               38861500      8.12%    100.00% # number of cycles we spent at this ipl
system.cpu0.kern.ipl_ticks::total           478558000                       # number of cycles we spent at this ipl
system.cpu0.kern.ipl_used::0                        1                       # fraction of swpipl calls that actually changed the ipl
system.cpu0.kern.ipl_used::22                       1                       # fraction of swpipl calls that actually changed the ipl
system.cpu0.kern.ipl_used::30                       1                       # fraction of swpipl calls that actually changed the ipl
system.cpu0.kern.ipl_used::31                0.865285                       # fraction of swpipl calls that actually changed the ipl
system.cpu0.kern.ipl_used::total             0.928375                       # fraction of swpipl calls that actually changed the ipl
system.cpu0.kern.syscall::2                         1     33.33%     33.33% # number of syscalls executed
system.cpu0.kern.syscall::3                         1     33.33%     66.67% # number of syscalls executed
system.cpu0.kern.syscall::19                        1     33.33%    100.00% # number of syscalls executed
system.cpu0.kern.syscall::total                     3                       # number of syscalls executed
system.cpu0.kern.callpal::wripir                    1      0.26%      0.26% # number of callpals executed
system.cpu0.kern.callpal::swpctx                   12      3.08%      3.34% # number of callpals executed
system.cpu0.kern.callpal::tbi                       2      0.51%      3.86% # number of callpals executed
system.cpu0.kern.callpal::swpipl                  342     87.92%     91.77% # number of callpals executed
system.cpu0.kern.callpal::rdps                      2      0.51%     92.29% # number of callpals executed
system.cpu0.kern.callpal::rdusp                     1      0.26%     92.54% # number of callpals executed
system.cpu0.kern.callpal::rti                      19      4.88%     97.43% # number of callpals executed
system.cpu0.kern.callpal::callsys                   9      2.31%     99.74% # number of callpals executed
system.cpu0.kern.callpal::imb                       1      0.26%    100.00% # number of callpals executed
system.cpu0.kern.callpal::total                   389                       # number of callpals executed
system.cpu0.kern.mode_switch::kernel               32                       # number of protection mode switches
system.cpu0.kern.mode_switch::user                 17                       # number of protection mode switches
system.cpu0.kern.mode_switch::idle                  0                       # number of protection mode switches
system.cpu0.kern.mode_good::kernel                 18                      
system.cpu0.kern.mode_good::user                   17                      
system.cpu0.kern.mode_good::idle                    0                      
system.cpu0.kern.mode_switch_good::kernel     0.562500                       # fraction of useful protection mode switches
system.cpu0.kern.mode_switch_good::user             1                       # fraction of useful protection mode switches
system.cpu0.kern.mode_switch_good::idle           nan                       # fraction of useful protection mode switches
system.cpu0.kern.mode_switch_good::total     0.714286                       # fraction of useful protection mode switches
system.cpu0.kern.mode_ticks::kernel         117893000     69.17%     69.17% # number of ticks spent at the given mode
system.cpu0.kern.mode_ticks::user            52540500     30.83%    100.00% # number of ticks spent at the given mode
system.cpu0.kern.mode_ticks::idle                   0      0.00%    100.00% # number of ticks spent at the given mode
system.cpu0.kern.swap_context                      12                       # number of times the context was actually changed
system.cpu0.dcache.tags.replacements             4867                       # number of replacements
system.cpu0.dcache.tags.tagsinuse          501.346207                       # Cycle average of tags in use
system.cpu0.dcache.tags.total_refs              55300                       # Total number of references to valid blocks.
system.cpu0.dcache.tags.sampled_refs             4867                       # Sample count of references to valid blocks.
system.cpu0.dcache.tags.avg_refs            11.362235                       # Average number of references to valid blocks.
system.cpu0.dcache.tags.warmup_cycle                0                       # Cycle when the warmup percentage was hit.
system.cpu0.dcache.tags.occ_blocks::cpu0.data    22.269063                       # Average occupied blocks per requestor
system.cpu0.dcache.tags.occ_blocks::switch_cpus0.data   479.077143                       # Average occupied blocks per requestor
system.cpu0.dcache.tags.occ_percent::cpu0.data     0.043494                       # Average percentage of cache occupancy
system.cpu0.dcache.tags.occ_percent::switch_cpus0.data     0.935698                       # Average percentage of cache occupancy
system.cpu0.dcache.tags.occ_percent::total     0.979192                       # Average percentage of cache occupancy
system.cpu0.dcache.tags.occ_task_id_blocks::1024          498                       # Occupied blocks per task id
system.cpu0.dcache.tags.age_task_id_blocks_1024::2          498                       # Occupied blocks per task id
system.cpu0.dcache.tags.occ_task_id_percent::1024     0.972656                       # Percentage of cache occupancy per task id
system.cpu0.dcache.tags.tag_accesses           286176                       # Number of tag accesses
system.cpu0.dcache.tags.data_accesses          286176                       # Number of data accesses
system.cpu0.dcache.ReadReq_hits::switch_cpus0.data        31576                       # number of ReadReq hits
system.cpu0.dcache.ReadReq_hits::total          31576                       # number of ReadReq hits
system.cpu0.dcache.WriteReq_hits::switch_cpus0.data        14036                       # number of WriteReq hits
system.cpu0.dcache.WriteReq_hits::total         14036                       # number of WriteReq hits
system.cpu0.dcache.LoadLockedReq_hits::switch_cpus0.data          548                       # number of LoadLockedReq hits
system.cpu0.dcache.LoadLockedReq_hits::total          548                       # number of LoadLockedReq hits
system.cpu0.dcache.StoreCondReq_hits::switch_cpus0.data          598                       # number of StoreCondReq hits
system.cpu0.dcache.StoreCondReq_hits::total          598                       # number of StoreCondReq hits
system.cpu0.dcache.demand_hits::switch_cpus0.data        45612                       # number of demand (read+write) hits
system.cpu0.dcache.demand_hits::total           45612                       # number of demand (read+write) hits
system.cpu0.dcache.overall_hits::switch_cpus0.data        45612                       # number of overall hits
system.cpu0.dcache.overall_hits::total          45612                       # number of overall hits
system.cpu0.dcache.ReadReq_misses::switch_cpus0.data         9341                       # number of ReadReq misses
system.cpu0.dcache.ReadReq_misses::total         9341                       # number of ReadReq misses
system.cpu0.dcache.WriteReq_misses::switch_cpus0.data        14045                       # number of WriteReq misses
system.cpu0.dcache.WriteReq_misses::total        14045                       # number of WriteReq misses
system.cpu0.dcache.LoadLockedReq_misses::switch_cpus0.data          152                       # number of LoadLockedReq misses
system.cpu0.dcache.LoadLockedReq_misses::total          152                       # number of LoadLockedReq misses
system.cpu0.dcache.StoreCondReq_misses::switch_cpus0.data           21                       # number of StoreCondReq misses
system.cpu0.dcache.StoreCondReq_misses::total           21                       # number of StoreCondReq misses
system.cpu0.dcache.demand_misses::switch_cpus0.data        23386                       # number of demand (read+write) misses
system.cpu0.dcache.demand_misses::total         23386                       # number of demand (read+write) misses
system.cpu0.dcache.overall_misses::switch_cpus0.data        23386                       # number of overall misses
system.cpu0.dcache.overall_misses::total        23386                       # number of overall misses
system.cpu0.dcache.ReadReq_miss_latency::switch_cpus0.data    279196968                       # number of ReadReq miss cycles
system.cpu0.dcache.ReadReq_miss_latency::total    279196968                       # number of ReadReq miss cycles
system.cpu0.dcache.WriteReq_miss_latency::switch_cpus0.data    320489004                       # number of WriteReq miss cycles
system.cpu0.dcache.WriteReq_miss_latency::total    320489004                       # number of WriteReq miss cycles
system.cpu0.dcache.LoadLockedReq_miss_latency::switch_cpus0.data      3247999                       # number of LoadLockedReq miss cycles
system.cpu0.dcache.LoadLockedReq_miss_latency::total      3247999                       # number of LoadLockedReq miss cycles
system.cpu0.dcache.StoreCondReq_miss_latency::switch_cpus0.data       223004                       # number of StoreCondReq miss cycles
system.cpu0.dcache.StoreCondReq_miss_latency::total       223004                       # number of StoreCondReq miss cycles
system.cpu0.dcache.demand_miss_latency::switch_cpus0.data    599685972                       # number of demand (read+write) miss cycles
system.cpu0.dcache.demand_miss_latency::total    599685972                       # number of demand (read+write) miss cycles
system.cpu0.dcache.overall_miss_latency::switch_cpus0.data    599685972                       # number of overall miss cycles
system.cpu0.dcache.overall_miss_latency::total    599685972                       # number of overall miss cycles
system.cpu0.dcache.ReadReq_accesses::switch_cpus0.data        40917                       # number of ReadReq accesses(hits+misses)
system.cpu0.dcache.ReadReq_accesses::total        40917                       # number of ReadReq accesses(hits+misses)
system.cpu0.dcache.WriteReq_accesses::switch_cpus0.data        28081                       # number of WriteReq accesses(hits+misses)
system.cpu0.dcache.WriteReq_accesses::total        28081                       # number of WriteReq accesses(hits+misses)
system.cpu0.dcache.LoadLockedReq_accesses::switch_cpus0.data          700                       # number of LoadLockedReq accesses(hits+misses)
system.cpu0.dcache.LoadLockedReq_accesses::total          700                       # number of LoadLockedReq accesses(hits+misses)
system.cpu0.dcache.StoreCondReq_accesses::switch_cpus0.data          619                       # number of StoreCondReq accesses(hits+misses)
system.cpu0.dcache.StoreCondReq_accesses::total          619                       # number of StoreCondReq accesses(hits+misses)
system.cpu0.dcache.demand_accesses::switch_cpus0.data        68998                       # number of demand (read+write) accesses
system.cpu0.dcache.demand_accesses::total        68998                       # number of demand (read+write) accesses
system.cpu0.dcache.overall_accesses::switch_cpus0.data        68998                       # number of overall (read+write) accesses
system.cpu0.dcache.overall_accesses::total        68998                       # number of overall (read+write) accesses
system.cpu0.dcache.ReadReq_miss_rate::switch_cpus0.data     0.228291                       # miss rate for ReadReq accesses
system.cpu0.dcache.ReadReq_miss_rate::total     0.228291                       # miss rate for ReadReq accesses
system.cpu0.dcache.WriteReq_miss_rate::switch_cpus0.data     0.500160                       # miss rate for WriteReq accesses
system.cpu0.dcache.WriteReq_miss_rate::total     0.500160                       # miss rate for WriteReq accesses
system.cpu0.dcache.LoadLockedReq_miss_rate::switch_cpus0.data     0.217143                       # miss rate for LoadLockedReq accesses
system.cpu0.dcache.LoadLockedReq_miss_rate::total     0.217143                       # miss rate for LoadLockedReq accesses
system.cpu0.dcache.StoreCondReq_miss_rate::switch_cpus0.data     0.033926                       # miss rate for StoreCondReq accesses
system.cpu0.dcache.StoreCondReq_miss_rate::total     0.033926                       # miss rate for StoreCondReq accesses
system.cpu0.dcache.demand_miss_rate::switch_cpus0.data     0.338937                       # miss rate for demand accesses
system.cpu0.dcache.demand_miss_rate::total     0.338937                       # miss rate for demand accesses
system.cpu0.dcache.overall_miss_rate::switch_cpus0.data     0.338937                       # miss rate for overall accesses
system.cpu0.dcache.overall_miss_rate::total     0.338937                       # miss rate for overall accesses
system.cpu0.dcache.ReadReq_avg_miss_latency::switch_cpus0.data 29889.408843                       # average ReadReq miss latency
system.cpu0.dcache.ReadReq_avg_miss_latency::total 29889.408843                       # average ReadReq miss latency
system.cpu0.dcache.WriteReq_avg_miss_latency::switch_cpus0.data 22818.725810                       # average WriteReq miss latency
system.cpu0.dcache.WriteReq_avg_miss_latency::total 22818.725810                       # average WriteReq miss latency
system.cpu0.dcache.LoadLockedReq_avg_miss_latency::switch_cpus0.data 21368.414474                       # average LoadLockedReq miss latency
system.cpu0.dcache.LoadLockedReq_avg_miss_latency::total 21368.414474                       # average LoadLockedReq miss latency
system.cpu0.dcache.StoreCondReq_avg_miss_latency::switch_cpus0.data 10619.238095                       # average StoreCondReq miss latency
system.cpu0.dcache.StoreCondReq_avg_miss_latency::total 10619.238095                       # average StoreCondReq miss latency
system.cpu0.dcache.demand_avg_miss_latency::switch_cpus0.data 25642.947575                       # average overall miss latency
system.cpu0.dcache.demand_avg_miss_latency::total 25642.947575                       # average overall miss latency
system.cpu0.dcache.overall_avg_miss_latency::switch_cpus0.data 25642.947575                       # average overall miss latency
system.cpu0.dcache.overall_avg_miss_latency::total 25642.947575                       # average overall miss latency
system.cpu0.dcache.blocked_cycles::no_mshrs        21217                       # number of cycles access was blocked
system.cpu0.dcache.blocked_cycles::no_targets            0                       # number of cycles access was blocked
system.cpu0.dcache.blocked::no_mshrs             1301                       # number of cycles access was blocked
system.cpu0.dcache.blocked::no_targets              0                       # number of cycles access was blocked
system.cpu0.dcache.avg_blocked_cycles::no_mshrs    16.308224                       # average number of cycles each access was blocked
system.cpu0.dcache.avg_blocked_cycles::no_targets          nan                       # average number of cycles each access was blocked
system.cpu0.dcache.fast_writes                      0                       # number of fast writes performed
system.cpu0.dcache.cache_copies                     0                       # number of cache copies performed
system.cpu0.dcache.writebacks::writebacks         3496                       # number of writebacks
system.cpu0.dcache.writebacks::total             3496                       # number of writebacks
system.cpu0.dcache.ReadReq_mshr_hits::switch_cpus0.data         6552                       # number of ReadReq MSHR hits
system.cpu0.dcache.ReadReq_mshr_hits::total         6552                       # number of ReadReq MSHR hits
system.cpu0.dcache.WriteReq_mshr_hits::switch_cpus0.data        11957                       # number of WriteReq MSHR hits
system.cpu0.dcache.WriteReq_mshr_hits::total        11957                       # number of WriteReq MSHR hits
system.cpu0.dcache.LoadLockedReq_mshr_hits::switch_cpus0.data           54                       # number of LoadLockedReq MSHR hits
system.cpu0.dcache.LoadLockedReq_mshr_hits::total           54                       # number of LoadLockedReq MSHR hits
system.cpu0.dcache.demand_mshr_hits::switch_cpus0.data        18509                       # number of demand (read+write) MSHR hits
system.cpu0.dcache.demand_mshr_hits::total        18509                       # number of demand (read+write) MSHR hits
system.cpu0.dcache.overall_mshr_hits::switch_cpus0.data        18509                       # number of overall MSHR hits
system.cpu0.dcache.overall_mshr_hits::total        18509                       # number of overall MSHR hits
system.cpu0.dcache.ReadReq_mshr_misses::switch_cpus0.data         2789                       # number of ReadReq MSHR misses
system.cpu0.dcache.ReadReq_mshr_misses::total         2789                       # number of ReadReq MSHR misses
system.cpu0.dcache.WriteReq_mshr_misses::switch_cpus0.data         2088                       # number of WriteReq MSHR misses
system.cpu0.dcache.WriteReq_mshr_misses::total         2088                       # number of WriteReq MSHR misses
system.cpu0.dcache.LoadLockedReq_mshr_misses::switch_cpus0.data           98                       # number of LoadLockedReq MSHR misses
system.cpu0.dcache.LoadLockedReq_mshr_misses::total           98                       # number of LoadLockedReq MSHR misses
system.cpu0.dcache.StoreCondReq_mshr_misses::switch_cpus0.data           21                       # number of StoreCondReq MSHR misses
system.cpu0.dcache.StoreCondReq_mshr_misses::total           21                       # number of StoreCondReq MSHR misses
system.cpu0.dcache.demand_mshr_misses::switch_cpus0.data         4877                       # number of demand (read+write) MSHR misses
system.cpu0.dcache.demand_mshr_misses::total         4877                       # number of demand (read+write) MSHR misses
system.cpu0.dcache.overall_mshr_misses::switch_cpus0.data         4877                       # number of overall MSHR misses
system.cpu0.dcache.overall_mshr_misses::total         4877                       # number of overall MSHR misses
system.cpu0.dcache.WriteReq_mshr_uncacheable::switch_cpus0.data            3                       # number of WriteReq MSHR uncacheable
system.cpu0.dcache.WriteReq_mshr_uncacheable::total            3                       # number of WriteReq MSHR uncacheable
system.cpu0.dcache.overall_mshr_uncacheable_misses::switch_cpus0.data            3                       # number of overall MSHR uncacheable misses
system.cpu0.dcache.overall_mshr_uncacheable_misses::total            3                       # number of overall MSHR uncacheable misses
system.cpu0.dcache.ReadReq_mshr_miss_latency::switch_cpus0.data     78623768                       # number of ReadReq MSHR miss cycles
system.cpu0.dcache.ReadReq_mshr_miss_latency::total     78623768                       # number of ReadReq MSHR miss cycles
system.cpu0.dcache.WriteReq_mshr_miss_latency::switch_cpus0.data     47691665                       # number of WriteReq MSHR miss cycles
system.cpu0.dcache.WriteReq_mshr_miss_latency::total     47691665                       # number of WriteReq MSHR miss cycles
system.cpu0.dcache.LoadLockedReq_mshr_miss_latency::switch_cpus0.data      2207001                       # number of LoadLockedReq MSHR miss cycles
system.cpu0.dcache.LoadLockedReq_mshr_miss_latency::total      2207001                       # number of LoadLockedReq MSHR miss cycles
system.cpu0.dcache.StoreCondReq_mshr_miss_latency::switch_cpus0.data       191496                       # number of StoreCondReq MSHR miss cycles
system.cpu0.dcache.StoreCondReq_mshr_miss_latency::total       191496                       # number of StoreCondReq MSHR miss cycles
system.cpu0.dcache.demand_mshr_miss_latency::switch_cpus0.data    126315433                       # number of demand (read+write) MSHR miss cycles
system.cpu0.dcache.demand_mshr_miss_latency::total    126315433                       # number of demand (read+write) MSHR miss cycles
system.cpu0.dcache.overall_mshr_miss_latency::switch_cpus0.data    126315433                       # number of overall MSHR miss cycles
system.cpu0.dcache.overall_mshr_miss_latency::total    126315433                       # number of overall MSHR miss cycles
system.cpu0.dcache.WriteReq_mshr_uncacheable_latency::switch_cpus0.data       674000                       # number of WriteReq MSHR uncacheable cycles
system.cpu0.dcache.WriteReq_mshr_uncacheable_latency::total       674000                       # number of WriteReq MSHR uncacheable cycles
system.cpu0.dcache.overall_mshr_uncacheable_latency::switch_cpus0.data       674000                       # number of overall MSHR uncacheable cycles
system.cpu0.dcache.overall_mshr_uncacheable_latency::total       674000                       # number of overall MSHR uncacheable cycles
system.cpu0.dcache.ReadReq_mshr_miss_rate::switch_cpus0.data     0.068162                       # mshr miss rate for ReadReq accesses
system.cpu0.dcache.ReadReq_mshr_miss_rate::total     0.068162                       # mshr miss rate for ReadReq accesses
system.cpu0.dcache.WriteReq_mshr_miss_rate::switch_cpus0.data     0.074356                       # mshr miss rate for WriteReq accesses
system.cpu0.dcache.WriteReq_mshr_miss_rate::total     0.074356                       # mshr miss rate for WriteReq accesses
system.cpu0.dcache.LoadLockedReq_mshr_miss_rate::switch_cpus0.data     0.140000                       # mshr miss rate for LoadLockedReq accesses
system.cpu0.dcache.LoadLockedReq_mshr_miss_rate::total     0.140000                       # mshr miss rate for LoadLockedReq accesses
system.cpu0.dcache.StoreCondReq_mshr_miss_rate::switch_cpus0.data     0.033926                       # mshr miss rate for StoreCondReq accesses
system.cpu0.dcache.StoreCondReq_mshr_miss_rate::total     0.033926                       # mshr miss rate for StoreCondReq accesses
system.cpu0.dcache.demand_mshr_miss_rate::switch_cpus0.data     0.070683                       # mshr miss rate for demand accesses
system.cpu0.dcache.demand_mshr_miss_rate::total     0.070683                       # mshr miss rate for demand accesses
system.cpu0.dcache.overall_mshr_miss_rate::switch_cpus0.data     0.070683                       # mshr miss rate for overall accesses
system.cpu0.dcache.overall_mshr_miss_rate::total     0.070683                       # mshr miss rate for overall accesses
system.cpu0.dcache.ReadReq_avg_mshr_miss_latency::switch_cpus0.data 28190.666189                       # average ReadReq mshr miss latency
system.cpu0.dcache.ReadReq_avg_mshr_miss_latency::total 28190.666189                       # average ReadReq mshr miss latency
system.cpu0.dcache.WriteReq_avg_mshr_miss_latency::switch_cpus0.data 22840.835728                       # average WriteReq mshr miss latency
system.cpu0.dcache.WriteReq_avg_mshr_miss_latency::total 22840.835728                       # average WriteReq mshr miss latency
system.cpu0.dcache.LoadLockedReq_avg_mshr_miss_latency::switch_cpus0.data 22520.418367                       # average LoadLockedReq mshr miss latency
system.cpu0.dcache.LoadLockedReq_avg_mshr_miss_latency::total 22520.418367                       # average LoadLockedReq mshr miss latency
system.cpu0.dcache.StoreCondReq_avg_mshr_miss_latency::switch_cpus0.data  9118.857143                       # average StoreCondReq mshr miss latency
system.cpu0.dcache.StoreCondReq_avg_mshr_miss_latency::total  9118.857143                       # average StoreCondReq mshr miss latency
system.cpu0.dcache.demand_avg_mshr_miss_latency::switch_cpus0.data 25900.232315                       # average overall mshr miss latency
system.cpu0.dcache.demand_avg_mshr_miss_latency::total 25900.232315                       # average overall mshr miss latency
system.cpu0.dcache.overall_avg_mshr_miss_latency::switch_cpus0.data 25900.232315                       # average overall mshr miss latency
system.cpu0.dcache.overall_avg_mshr_miss_latency::total 25900.232315                       # average overall mshr miss latency
system.cpu0.dcache.WriteReq_avg_mshr_uncacheable_latency::switch_cpus0.data 224666.666667                       # average WriteReq mshr uncacheable latency
system.cpu0.dcache.WriteReq_avg_mshr_uncacheable_latency::total 224666.666667                       # average WriteReq mshr uncacheable latency
system.cpu0.dcache.overall_avg_mshr_uncacheable_latency::switch_cpus0.data 224666.666667                       # average overall mshr uncacheable latency
system.cpu0.dcache.overall_avg_mshr_uncacheable_latency::total 224666.666667                       # average overall mshr uncacheable latency
system.cpu0.dcache.no_allocate_misses               0                       # Number of misses that were no-allocate
system.cpu0.icache.tags.replacements             3462                       # number of replacements
system.cpu0.icache.tags.tagsinuse          511.975683                       # Cycle average of tags in use
system.cpu0.icache.tags.total_refs             259960                       # Total number of references to valid blocks.
system.cpu0.icache.tags.sampled_refs             3462                       # Sample count of references to valid blocks.
system.cpu0.icache.tags.avg_refs            75.089544                       # Average number of references to valid blocks.
system.cpu0.icache.tags.warmup_cycle                0                       # Cycle when the warmup percentage was hit.
system.cpu0.icache.tags.occ_blocks::cpu0.inst    18.396924                       # Average occupied blocks per requestor
system.cpu0.icache.tags.occ_blocks::switch_cpus0.inst   493.578758                       # Average occupied blocks per requestor
system.cpu0.icache.tags.occ_percent::cpu0.inst     0.035931                       # Average percentage of cache occupancy
system.cpu0.icache.tags.occ_percent::switch_cpus0.inst     0.964021                       # Average percentage of cache occupancy
system.cpu0.icache.tags.occ_percent::total     0.999953                       # Average percentage of cache occupancy
system.cpu0.icache.tags.occ_task_id_blocks::1024          512                       # Occupied blocks per task id
system.cpu0.icache.tags.age_task_id_blocks_1024::2          512                       # Occupied blocks per task id
system.cpu0.icache.tags.occ_task_id_percent::1024            1                       # Percentage of cache occupancy per task id
system.cpu0.icache.tags.tag_accesses            84116                       # Number of tag accesses
system.cpu0.icache.tags.data_accesses           84116                       # Number of data accesses
system.cpu0.icache.ReadReq_hits::switch_cpus0.inst        36188                       # number of ReadReq hits
system.cpu0.icache.ReadReq_hits::total          36188                       # number of ReadReq hits
system.cpu0.icache.demand_hits::switch_cpus0.inst        36188                       # number of demand (read+write) hits
system.cpu0.icache.demand_hits::total           36188                       # number of demand (read+write) hits
system.cpu0.icache.overall_hits::switch_cpus0.inst        36188                       # number of overall hits
system.cpu0.icache.overall_hits::total          36188                       # number of overall hits
system.cpu0.icache.ReadReq_misses::switch_cpus0.inst         4138                       # number of ReadReq misses
system.cpu0.icache.ReadReq_misses::total         4138                       # number of ReadReq misses
system.cpu0.icache.demand_misses::switch_cpus0.inst         4138                       # number of demand (read+write) misses
system.cpu0.icache.demand_misses::total          4138                       # number of demand (read+write) misses
system.cpu0.icache.overall_misses::switch_cpus0.inst         4138                       # number of overall misses
system.cpu0.icache.overall_misses::total         4138                       # number of overall misses
system.cpu0.icache.ReadReq_miss_latency::switch_cpus0.inst    163411633                       # number of ReadReq miss cycles
system.cpu0.icache.ReadReq_miss_latency::total    163411633                       # number of ReadReq miss cycles
system.cpu0.icache.demand_miss_latency::switch_cpus0.inst    163411633                       # number of demand (read+write) miss cycles
system.cpu0.icache.demand_miss_latency::total    163411633                       # number of demand (read+write) miss cycles
system.cpu0.icache.overall_miss_latency::switch_cpus0.inst    163411633                       # number of overall miss cycles
system.cpu0.icache.overall_miss_latency::total    163411633                       # number of overall miss cycles
system.cpu0.icache.ReadReq_accesses::switch_cpus0.inst        40326                       # number of ReadReq accesses(hits+misses)
[...]
system.switch_cpus3.ipc_total                0.463057                       # IPC: Total IPC of All Threads
system.switch_cpus3.int_regfile_reads          215712                       # number of integer regfile reads
system.switch_cpus3.int_regfile_writes         117279                       # number of integer regfile writes
system.switch_cpus3.fp_regfile_reads              154                       # number of floating regfile reads
system.switch_cpus3.fp_regfile_writes             162                       # number of floating regfile writes
system.switch_cpus3.misc_regfile_reads          17199                       # number of misc regfile reads
system.switch_cpus3.misc_regfile_writes          4712                       # number of misc regfile writes
system.tol2bus.trans_dist::ReadReq              43130                       # Transaction distribution
system.tol2bus.trans_dist::ReadResp             43129                       # Transaction distribution
system.tol2bus.trans_dist::WriteReq              2594                       # Transaction distribution
system.tol2bus.trans_dist::WriteResp             2594                       # Transaction distribution
system.tol2bus.trans_dist::Writeback            14404                       # Transaction distribution
system.tol2bus.trans_dist::UpgradeReq             893                       # Transaction distribution
system.tol2bus.trans_dist::SCUpgradeReq           358                       # Transaction distribution
system.tol2bus.trans_dist::UpgradeResp           1251                       # Transaction distribution
system.tol2bus.trans_dist::ReadExReq            10016                       # Transaction distribution
system.tol2bus.trans_dist::ReadExResp           10016                       # Transaction distribution
system.tol2bus.trans_dist::BadAddressError            1                       # Transaction distribution
system.tol2bus.pkt_count_system.cpu0.icache.mem_side::system.l2.cpu_side        15712                       # Packet count per connected master and slave (bytes)
system.tol2bus.pkt_count_system.cpu0.dcache.mem_side::system.l2.cpu_side        53453                       # Packet count per connected master and slave (bytes)
system.tol2bus.pkt_count_system.cpu1.icache.mem_side::system.l2.cpu_side          136                       # Packet count per connected master and slave (bytes)
system.tol2bus.pkt_count_system.cpu1.dcache.mem_side::system.l2.cpu_side           47                       # Packet count per connected master and slave (bytes)
system.tol2bus.pkt_count_system.cpu2.icache.mem_side::system.l2.cpu_side        23537                       # Packet count per connected master and slave (bytes)
system.tol2bus.pkt_count_system.cpu2.dcache.mem_side::system.l2.cpu_side        23172                       # Packet count per connected master and slave (bytes)
system.tol2bus.pkt_count_system.cpu3.icache.mem_side::system.l2.cpu_side         4439                       # Packet count per connected master and slave (bytes)
system.tol2bus.pkt_count_system.cpu3.dcache.mem_side::system.l2.cpu_side         5978                       # Packet count per connected master and slave (bytes)
system.tol2bus.pkt_count::total                126474                       # Packet count per connected master and slave (bytes)
system.tol2bus.pkt_size_system.cpu0.icache.mem_side::system.l2.cpu_side       502720                       # Cumulative packet size per connected master and slave (bytes)
system.tol2bus.pkt_size_system.cpu0.dcache.mem_side::system.l2.cpu_side      1323314                       # Cumulative packet size per connected master and slave (bytes)
system.tol2bus.pkt_size_system.cpu1.icache.mem_side::system.l2.cpu_side         4352                       # Cumulative packet size per connected master and slave (bytes)
system.tol2bus.pkt_size_system.cpu1.dcache.mem_side::system.l2.cpu_side          368                       # Cumulative packet size per connected master and slave (bytes)
system.tol2bus.pkt_size_system.cpu2.icache.mem_side::system.l2.cpu_side       753152                       # Cumulative packet size per connected master and slave (bytes)
system.tol2bus.pkt_size_system.cpu2.dcache.mem_side::system.l2.cpu_side       854650                       # Cumulative packet size per connected master and slave (bytes)
system.tol2bus.pkt_size_system.cpu3.icache.mem_side::system.l2.cpu_side       141952                       # Cumulative packet size per connected master and slave (bytes)
system.tol2bus.pkt_size_system.cpu3.dcache.mem_side::system.l2.cpu_side       219904                       # Cumulative packet size per connected master and slave (bytes)
system.tol2bus.pkt_size::total                3800412                       # Cumulative packet size per connected master and slave (bytes)
system.tol2bus.snoops                            1912                       # Total snoops (count)
system.tol2bus.snoop_fanout::samples            71395                       # Request fanout histogram
system.tol2bus.snoop_fanout::mean                   7                       # Request fanout histogram
system.tol2bus.snoop_fanout::stdev                  0                       # Request fanout histogram
system.tol2bus.snoop_fanout::underflows             0      0.00%      0.00% # Request fanout histogram
system.tol2bus.snoop_fanout::0                      0      0.00%      0.00% # Request fanout histogram
system.tol2bus.snoop_fanout::1                      0      0.00%      0.00% # Request fanout histogram
system.tol2bus.snoop_fanout::2                      0      0.00%      0.00% # Request fanout histogram
system.tol2bus.snoop_fanout::3                      0      0.00%      0.00% # Request fanout histogram
system.tol2bus.snoop_fanout::4                      0      0.00%      0.00% # Request fanout histogram
system.tol2bus.snoop_fanout::5                      0      0.00%      0.00% # Request fanout histogram
system.tol2bus.snoop_fanout::6                      0      0.00%      0.00% # Request fanout histogram
system.tol2bus.snoop_fanout::7                  71395    100.00%    100.00% # Request fanout histogram
system.tol2bus.snoop_fanout::8                      0      0.00%    100.00% # Request fanout histogram
system.tol2bus.snoop_fanout::overflows              0      0.00%    100.00% # Request fanout histogram
system.tol2bus.snoop_fanout::min_value              7                       # Request fanout histogram
system.tol2bus.snoop_fanout::max_value              7                       # Request fanout histogram
system.tol2bus.snoop_fanout::total              71395                       # Request fanout histogram
system.tol2bus.reqLayer0.occupancy           51399498                       # Layer occupancy (ticks)
system.tol2bus.reqLayer0.utilization              1.2                       # Layer utilization (%)
system.tol2bus.respLayer0.occupancy          12039728                       # Layer occupancy (ticks)
system.tol2bus.respLayer0.utilization             0.3                       # Layer utilization (%)
system.tol2bus.respLayer1.occupancy          28944061                       # Layer occupancy (ticks)
system.tol2bus.respLayer1.utilization             0.7                       # Layer utilization (%)
system.tol2bus.respLayer2.occupancy            102499                       # Layer occupancy (ticks)
system.tol2bus.respLayer2.utilization             0.0                       # Layer utilization (%)
system.tol2bus.respLayer3.occupancy             31752                       # Layer occupancy (ticks)
system.tol2bus.respLayer3.utilization             0.0                       # Layer utilization (%)
system.tol2bus.respLayer4.occupancy          18127466                       # Layer occupancy (ticks)
system.tol2bus.respLayer4.utilization             0.4                       # Layer utilization (%)
system.tol2bus.respLayer5.occupancy          14205448                       # Layer occupancy (ticks)
system.tol2bus.respLayer5.utilization             0.3                       # Layer utilization (%)
system.tol2bus.respLayer6.occupancy           3404981                       # Layer occupancy (ticks)
system.tol2bus.respLayer6.utilization             0.1                       # Layer utilization (%)
system.tol2bus.respLayer7.occupancy           3809004                       # Layer occupancy (ticks)
system.tol2bus.respLayer7.utilization             0.1                       # Layer utilization (%)
system.tsunami.ethernet.descDMAReads                0                       # Number of descriptors the device read w/ DMA
system.tsunami.ethernet.descDMAWrites               0                       # Number of descriptors the device wrote w/ DMA
system.tsunami.ethernet.descDmaReadBytes            0                       # number of descriptor bytes read w/ DMA
system.tsunami.ethernet.descDmaWriteBytes            0                       # number of descriptor bytes write w/ DMA
system.tsunami.ethernet.postedSwi                   0                       # number of software interrupts posted to CPU
system.tsunami.ethernet.coalescedSwi              nan                       # average number of Swi's coalesced into each post
system.tsunami.ethernet.totalSwi                    0                       # total number of Swi written to ISR
system.tsunami.ethernet.postedRxIdle                0                       # number of rxIdle interrupts posted to CPU
system.tsunami.ethernet.coalescedRxIdle           nan                       # average number of RxIdle's coalesced into each post
system.tsunami.ethernet.totalRxIdle                 0                       # total number of RxIdle written to ISR
system.tsunami.ethernet.postedRxOk                  0                       # number of RxOk interrupts posted to CPU
system.tsunami.ethernet.coalescedRxOk             nan                       # average number of RxOk's coalesced into each post
system.tsunami.ethernet.totalRxOk                   0                       # total number of RxOk written to ISR
system.tsunami.ethernet.postedRxDesc                0                       # number of RxDesc interrupts posted to CPU
system.tsunami.ethernet.coalescedRxDesc           nan                       # average number of RxDesc's coalesced into each post
system.tsunami.ethernet.totalRxDesc                 0                       # total number of RxDesc written to ISR
system.tsunami.ethernet.postedTxOk                  0                       # number of TxOk interrupts posted to CPU
system.tsunami.ethernet.coalescedTxOk             nan                       # average number of TxOk's coalesced into each post
system.tsunami.ethernet.totalTxOk                   0                       # total number of TxOk written to ISR
system.tsunami.ethernet.postedTxIdle                0                       # number of TxIdle interrupts posted to CPU
system.tsunami.ethernet.coalescedTxIdle           nan                       # average number of TxIdle's coalesced into each post
system.tsunami.ethernet.totalTxIdle                 0                       # total number of TxIdle written to ISR
system.tsunami.ethernet.postedTxDesc                0                       # number of TxDesc interrupts posted to CPU
system.tsunami.ethernet.coalescedTxDesc           nan                       # average number of TxDesc's coalesced into each post
system.tsunami.ethernet.totalTxDesc                 0                       # total number of TxDesc written to ISR
system.tsunami.ethernet.postedRxOrn                 0                       # number of RxOrn posted to CPU
system.tsunami.ethernet.coalescedRxOrn            nan                       # average number of RxOrn's coalesced into each post
system.tsunami.ethernet.totalRxOrn                  0                       # total number of RxOrn written to ISR
system.tsunami.ethernet.coalescedTotal            nan                       # average number of interrupts coalesced into each post
system.tsunami.ethernet.postedInterrupts            0                       # number of posts to CPU
system.tsunami.ethernet.droppedPackets              0                       # number of packets dropped
system.switch_cpus0.kern.inst.arm                   0                       # number of arm instructions executed
system.switch_cpus0.kern.inst.quiesce               0                       # number of quiesce instructions executed
system.switch_cpus0.kern.inst.hwrei                 0                       # number of hwrei instructions executed
system.switch_cpus0.kern.mode_switch::kernel            0                       # number of protection mode switches
system.switch_cpus0.kern.mode_switch::user            0                       # number of protection mode switches
system.switch_cpus0.kern.mode_switch::idle            0                       # number of protection mode switches
system.switch_cpus0.kern.mode_good::kernel            0                      
system.switch_cpus0.kern.mode_good::user            0                      
system.switch_cpus0.kern.mode_good::idle            0                      
system.switch_cpus0.kern.mode_switch_good::kernel          nan                       # fraction of useful protection mode switches
system.switch_cpus0.kern.mode_switch_good::user          nan                       # fraction of useful protection mode switches
system.switch_cpus0.kern.mode_switch_good::idle          nan                       # fraction of useful protection mode switches
system.switch_cpus0.kern.mode_switch_good::total          nan                       # fraction of useful protection mode switches
system.switch_cpus0.kern.mode_ticks::kernel            0                       # number of ticks spent at the given mode
system.switch_cpus0.kern.mode_ticks::user            0                       # number of ticks spent at the given mode
system.switch_cpus0.kern.mode_ticks::idle            0                       # number of ticks spent at the given mode
system.switch_cpus0.kern.swap_context               0                       # number of times the context was actually changed
system.switch_cpus1.kern.inst.arm                   0                       # number of arm instructions executed
system.switch_cpus1.kern.inst.quiesce               0                       # number of quiesce instructions executed
system.switch_cpus1.kern.inst.hwrei                 0                       # number of hwrei instructions executed
system.switch_cpus1.kern.mode_switch::kernel            0                       # number of protection mode switches
system.switch_cpus1.kern.mode_switch::user            0                       # number of protection mode switches
system.switch_cpus1.kern.mode_switch::idle            0                       # number of protection mode switches
system.switch_cpus1.kern.mode_good::kernel            0                      
system.switch_cpus1.kern.mode_good::user            0                      
system.switch_cpus1.kern.mode_good::idle            0                      
system.switch_cpus1.kern.mode_switch_good::kernel          nan                       # fraction of useful protection mode switches
system.switch_cpus1.kern.mode_switch_good::user          nan                       # fraction of useful protection mode switches
system.switch_cpus1.kern.mode_switch_good::idle          nan                       # fraction of useful protection mode switches
system.switch_cpus1.kern.mode_switch_good::total          nan                       # fraction of useful protection mode switches
system.switch_cpus1.kern.mode_ticks::kernel            0                       # number of ticks spent at the given mode
system.switch_cpus1.kern.mode_ticks::user            0                       # number of ticks spent at the given mode
system.switch_cpus1.kern.mode_ticks::idle            0                       # number of ticks spent at the given mode
system.switch_cpus1.kern.swap_context               0                       # number of times the context was actually changed
system.switch_cpus2.kern.inst.arm                   0                       # number of arm instructions executed
system.switch_cpus2.kern.inst.quiesce               0                       # number of quiesce instructions executed
system.switch_cpus2.kern.inst.hwrei                 0                       # number of hwrei instructions executed
system.switch_cpus2.kern.mode_switch::kernel            0                       # number of protection mode switches
system.switch_cpus2.kern.mode_switch::user            0                       # number of protection mode switches
system.switch_cpus2.kern.mode_switch::idle            0                       # number of protection mode switches
system.switch_cpus2.kern.mode_good::kernel            0                      
system.switch_cpus2.kern.mode_good::user            0                      
system.switch_cpus2.kern.mode_good::idle            0                      
system.switch_cpus2.kern.mode_switch_good::kernel          nan                       # fraction of useful protection mode switches
system.switch_cpus2.kern.mode_switch_good::user          nan                       # fraction of useful protection mode switches
system.switch_cpus2.kern.mode_switch_good::idle          nan                       # fraction of useful protection mode switches
system.switch_cpus2.kern.mode_switch_good::total          nan                       # fraction of useful protection mode switches
system.switch_cpus2.kern.mode_ticks::kernel            0                       # number of ticks spent at the given mode
system.switch_cpus2.kern.mode_ticks::user            0                       # number of ticks spent at the given mode
system.switch_cpus2.kern.mode_ticks::idle            0                       # number of ticks spent at the given mode
system.switch_cpus2.kern.swap_context               0                       # number of times the context was actually changed
system.switch_cpus3.kern.inst.arm                   0                       # number of arm instructions executed
system.switch_cpus3.kern.inst.quiesce               0                       # number of quiesce instructions executed
system.switch_cpus3.kern.inst.hwrei                 0                       # number of hwrei instructions executed
system.switch_cpus3.kern.mode_switch::kernel            0                       # number of protection mode switches
system.switch_cpus3.kern.mode_switch::user            0                       # number of protection mode switches
system.switch_cpus3.kern.mode_switch::idle            0                       # number of protection mode switches
system.switch_cpus3.kern.mode_good::kernel            0                      
system.switch_cpus3.kern.mode_good::user            0                      
system.switch_cpus3.kern.mode_good::idle            0                      
system.switch_cpus3.kern.mode_switch_good::kernel          nan                       # fraction of useful protection mode switches
system.switch_cpus3.kern.mode_switch_good::user          nan                       # fraction of useful protection mode switches
system.switch_cpus3.kern.mode_switch_good::idle          nan                       # fraction of useful protection mode switches
system.switch_cpus3.kern.mode_switch_good::total          nan                       # fraction of useful protection mode switches
system.switch_cpus3.kern.mode_ticks::kernel            0                       # number of ticks spent at the given mode
system.switch_cpus3.kern.mode_ticks::user            0                       # number of ticks spent at the given mode
system.switch_cpus3.kern.mode_ticks::idle            0                       # number of ticks spent at the given mode
system.switch_cpus3.kern.swap_context               0                       # number of times the context was actually changed

---------- End Simulation Statistics   ----------
