
---------- Begin Simulation Statistics ----------
sim_seconds                                  0.000665                       # Number of seconds simulated
sim_ticks                                   665280000                       # Number of ticks simulated
final_tick                               2255107062000                       # Number of ticks from beginning of simulation (restored from checkpoints and never reset)
sim_freq                                 1000000000000                       # Frequency of simulated ticks
host_inst_rate                               38499692                       # Simulator instruction rate (inst/s)
host_op_rate                                 38499582                       # Simulator op (including micro ops) rate (op/s)
host_tick_rate                              261390647                       # Simulator tick rate (ticks/s)
host_mem_usage                                 736364                       # Number of bytes of host memory used
host_seconds                                     2.55                       # Real time elapsed on the host
sim_insts                                    97987200                       # Number of instructions simulated
sim_ops                                      97987200                       # Number of ops (including micro ops) simulated
system.voltage_domain.voltage                       1                       # Voltage in Volts
system.clk_domain.clock                          1000                       # Clock period in ticks
system.mem_ctrls.bytes_read::switch_cpus.inst       111808                       # Number of bytes read from this memory
system.mem_ctrls.bytes_read::switch_cpus.data       228928                       # Number of bytes read from this memory
system.mem_ctrls.bytes_read::total             340736                       # Number of bytes read from this memory
system.mem_ctrls.bytes_inst_read::switch_cpus.inst       111808                       # Number of instructions bytes read from this memory
system.mem_ctrls.bytes_inst_read::total        111808                       # Number of instructions bytes read from this memory
system.mem_ctrls.bytes_written::writebacks       155456                       # Number of bytes written to this memory
system.mem_ctrls.bytes_written::total          155456                       # Number of bytes written to this memory
system.mem_ctrls.num_reads::switch_cpus.inst         1747                       # Number of read requests responded to by this memory
system.mem_ctrls.num_reads::switch_cpus.data         3577                       # Number of read requests responded to by this memory
system.mem_ctrls.num_reads::total                5324                       # Number of read requests responded to by this memory
system.mem_ctrls.num_writes::writebacks          2429                       # Number of write requests responded to by this memory
system.mem_ctrls.num_writes::total               2429                       # Number of write requests responded to by this memory
system.mem_ctrls.bw_read::switch_cpus.inst    168061568                       # Total read bandwidth from this memory (bytes/s)
system.mem_ctrls.bw_read::switch_cpus.data    344107744                       # Total read bandwidth from this memory (bytes/s)
system.mem_ctrls.bw_read::total             512169312                       # Total read bandwidth from this memory (bytes/s)
system.mem_ctrls.bw_inst_read::switch_cpus.inst    168061568                       # Instruction read bandwidth from this memory (bytes/s)
system.mem_ctrls.bw_inst_read::total        168061568                       # Instruction read bandwidth from this memory (bytes/s)
system.mem_ctrls.bw_write::writebacks       233670034                       # Write bandwidth from this memory (bytes/s)
system.mem_ctrls.bw_write::total            233670034                       # Write bandwidth from this memory (bytes/s)
system.mem_ctrls.bw_total::writebacks       233670034                       # Total bandwidth to/from this memory (bytes/s)
system.mem_ctrls.bw_total::switch_cpus.inst    168061568                       # Total bandwidth to/from this memory (bytes/s)
system.mem_ctrls.bw_total::switch_cpus.data    344107744                       # Total bandwidth to/from this memory (bytes/s)
system.mem_ctrls.bw_total::total            745839346                       # Total bandwidth to/from this memory (bytes/s)
system.mem_ctrls.readReqs                        5324                       # Number of read requests accepted
system.mem_ctrls.writeReqs                       2429                       # Number of write requests accepted
system.mem_ctrls.readBursts                      5324                       # Number of DRAM read bursts, including those serviced by the write queue
system.mem_ctrls.writeBursts                     2429                       # Number of DRAM write bursts, including those merged in the write queue
system.mem_ctrls.bytesReadDRAM                 339776                       # Total number of bytes read from DRAM
system.mem_ctrls.bytesReadWrQ                     960                       # Total number of bytes read from write queue
system.mem_ctrls.bytesWritten                  153600                       # Total number of bytes written to DRAM
system.mem_ctrls.bytesReadSys                  340736                       # Total read bytes from the system interface side
system.mem_ctrls.bytesWrittenSys               155456                       # Total written bytes from the system interface side
system.mem_ctrls.servicedByWrQ                     15                       # Number of DRAM read bursts serviced by the write queue
system.mem_ctrls.mergedWrBursts                     0                       # Number of DRAM write bursts merged with an existing one
system.mem_ctrls.neitherReadNorWriteReqs            0                       # Number of requests that are neither read nor write
system.mem_ctrls.perBankRdBursts::0               519                       # Per bank write bursts
system.mem_ctrls.perBankRdBursts::1               172                       # Per bank write bursts
system.mem_ctrls.perBankRdBursts::2               289                       # Per bank write bursts
system.mem_ctrls.perBankRdBursts::3               455                       # Per bank write bursts
system.mem_ctrls.perBankRdBursts::4               111                       # Per bank write bursts
system.mem_ctrls.perBankRdBursts::5               475                       # Per bank write bursts
system.mem_ctrls.perBankRdBursts::6               197                       # Per bank write bursts
system.mem_ctrls.perBankRdBursts::7               303                       # Per bank write bursts
system.mem_ctrls.perBankRdBursts::8               414                       # Per bank write bursts
system.mem_ctrls.perBankRdBursts::9               214                       # Per bank write bursts
system.mem_ctrls.perBankRdBursts::10              402                       # Per bank write bursts
system.mem_ctrls.perBankRdBursts::11              620                       # Per bank write bursts
system.mem_ctrls.perBankRdBursts::12              146                       # Per bank write bursts
system.mem_ctrls.perBankRdBursts::13              571                       # Per bank write bursts
system.mem_ctrls.perBankRdBursts::14              216                       # Per bank write bursts
system.mem_ctrls.perBankRdBursts::15              205                       # Per bank write bursts
system.mem_ctrls.perBankWrBursts::0               112                       # Per bank write bursts
system.mem_ctrls.perBankWrBursts::1                73                       # Per bank write bursts
system.mem_ctrls.perBankWrBursts::2               147                       # Per bank write bursts
system.mem_ctrls.perBankWrBursts::3               431                       # Per bank write bursts
system.mem_ctrls.perBankWrBursts::4                51                       # Per bank write bursts
system.mem_ctrls.perBankWrBursts::5               417                       # Per bank write bursts
system.mem_ctrls.perBankWrBursts::6                92                       # Per bank write bursts
system.mem_ctrls.perBankWrBursts::7               143                       # Per bank write bursts
system.mem_ctrls.perBankWrBursts::8               256                       # Per bank write bursts
system.mem_ctrls.perBankWrBursts::9                82                       # Per bank write bursts
system.mem_ctrls.perBankWrBursts::10              154                       # Per bank write bursts
system.mem_ctrls.perBankWrBursts::11              125                       # Per bank write bursts
system.mem_ctrls.perBankWrBursts::12               32                       # Per bank write bursts
system.mem_ctrls.perBankWrBursts::13              135                       # Per bank write bursts
system.mem_ctrls.perBankWrBursts::14               63                       # Per bank write bursts
system.mem_ctrls.perBankWrBursts::15               87                       # Per bank write bursts
system.mem_ctrls.numRdRetry                         0                       # Number of times read queue was full causing retry
system.mem_ctrls.numWrRetry                         0                       # Number of times write queue was full causing retry
system.mem_ctrls.totGap                     663045000                       # Total gap between requests
system.mem_ctrls.readPktSize::0                     0                       # Read request sizes (log2)
system.mem_ctrls.readPktSize::1                     0                       # Read request sizes (log2)
system.mem_ctrls.readPktSize::2                     0                       # Read request sizes (log2)
system.mem_ctrls.readPktSize::3                     0                       # Read request sizes (log2)
system.mem_ctrls.readPktSize::4                     0                       # Read request sizes (log2)
system.mem_ctrls.readPktSize::5                     0                       # Read request sizes (log2)
system.mem_ctrls.readPktSize::6                  5324                       # Read request sizes (log2)
system.mem_ctrls.writePktSize::0                    0                       # Write request sizes (log2)
system.mem_ctrls.writePktSize::1                    0                       # Write request sizes (log2)
system.mem_ctrls.writePktSize::2                    0                       # Write request sizes (log2)
system.mem_ctrls.writePktSize::3                    0                       # Write request sizes (log2)
system.mem_ctrls.writePktSize::4                    0                       # Write request sizes (log2)
system.mem_ctrls.writePktSize::5                    0                       # Write request sizes (log2)
system.mem_ctrls.writePktSize::6                 2429                       # Write request sizes (log2)
system.mem_ctrls.rdQLenPdf::0                    3293                       # What read queue length does an incoming req see
system.mem_ctrls.rdQLenPdf::1                    1266                       # What read queue length does an incoming req see
system.mem_ctrls.rdQLenPdf::2                     516                       # What read queue length does an incoming req see
system.mem_ctrls.rdQLenPdf::3                     234                       # What read queue length does an incoming req see
system.mem_ctrls.rdQLenPdf::4                       0                       # What read queue length does an incoming req see
system.mem_ctrls.rdQLenPdf::5                       0                       # What read queue length does an incoming req see
system.mem_ctrls.rdQLenPdf::6                       0                       # What read queue length does an incoming req see
system.mem_ctrls.rdQLenPdf::7                       0                       # What read queue length does an incoming req see
system.mem_ctrls.rdQLenPdf::8                       0                       # What read queue length does an incoming req see
system.mem_ctrls.rdQLenPdf::9                       0                       # What read queue length does an incoming req see
system.mem_ctrls.rdQLenPdf::10                      0                       # What read queue length does an incoming req see
system.mem_ctrls.rdQLenPdf::11                      0                       # What read queue length does an incoming req see
system.mem_ctrls.rdQLenPdf::12                      0                       # What read queue length does an incoming req see
system.mem_ctrls.rdQLenPdf::13                      0                       # What read queue length does an incoming req see
system.mem_ctrls.rdQLenPdf::14                      0                       # What read queue length does an incoming req see
system.mem_ctrls.rdQLenPdf::15                      0                       # What read queue length does an incoming req see
system.mem_ctrls.rdQLenPdf::16                      0                       # What read queue length does an incoming req see
system.mem_ctrls.rdQLenPdf::17                      0                       # What read queue length does an incoming req see
system.mem_ctrls.rdQLenPdf::18                      0                       # What read queue length does an incoming req see
system.mem_ctrls.rdQLenPdf::19                      0                       # What read queue length does an incoming req see
system.mem_ctrls.rdQLenPdf::20                      0                       # What read queue length does an incoming req see
system.mem_ctrls.rdQLenPdf::21                      0                       # What read queue length does an incoming req see
system.mem_ctrls.rdQLenPdf::22                      0                       # What read queue length does an incoming req see
system.mem_ctrls.rdQLenPdf::23                      0                       # What read queue length does an incoming req see
system.mem_ctrls.rdQLenPdf::24                      0                       # What read queue length does an incoming req see
system.mem_ctrls.rdQLenPdf::25                      0                       # What read queue length does an incoming req see
system.mem_ctrls.rdQLenPdf::26                      0                       # What read queue length does an incoming req see
system.mem_ctrls.rdQLenPdf::27                      0                       # What read queue length does an incoming req see
system.mem_ctrls.rdQLenPdf::28                      0                       # What read queue length does an incoming req see
system.mem_ctrls.rdQLenPdf::29                      0                       # What read queue length does an incoming req see
system.mem_ctrls.rdQLenPdf::30                      0                       # What read queue length does an incoming req see
system.mem_ctrls.rdQLenPdf::31                      0                       # What read queue length does an incoming req see
system.mem_ctrls.wrQLenPdf::0                       1                       # What write queue length does an incoming req see
system.mem_ctrls.wrQLenPdf::1                       1                       # What write queue length does an incoming req see
system.mem_ctrls.wrQLenPdf::2                       1                       # What write queue length does an incoming req see
system.mem_ctrls.wrQLenPdf::3                       1                       # What write queue length does an incoming req see
system.mem_ctrls.wrQLenPdf::4                       1                       # What write queue length does an incoming req see
system.mem_ctrls.wrQLenPdf::5                       1                       # What write queue length does an incoming req see
system.mem_ctrls.wrQLenPdf::6                       1                       # What write queue length does an incoming req see
system.mem_ctrls.wrQLenPdf::7                       1                       # What write queue length does an incoming req see
system.mem_ctrls.wrQLenPdf::8                       1                       # What write queue length does an incoming req see
system.mem_ctrls.wrQLenPdf::9                       1                       # What write queue length does an incoming req see
system.mem_ctrls.wrQLenPdf::10                      1                       # What write queue length does an incoming req see
system.mem_ctrls.wrQLenPdf::11                      1                       # What write queue length does an incoming req see
system.mem_ctrls.wrQLenPdf::12                      1                       # What write queue length does an incoming req see
system.mem_ctrls.wrQLenPdf::13                      1                       # What write queue length does an incoming req see
system.mem_ctrls.wrQLenPdf::14                      1                       # What write queue length does an incoming req see
system.mem_ctrls.wrQLenPdf::15                     35                       # What write queue length does an incoming req see
system.mem_ctrls.wrQLenPdf::16                     38                       # What write queue length does an incoming req see
system.mem_ctrls.wrQLenPdf::17                    104                       # What write queue length does an incoming req see
system.mem_ctrls.wrQLenPdf::18                    127                       # What write queue length does an incoming req see
system.mem_ctrls.wrQLenPdf::19                    141                       # What write queue length does an incoming req see
system.mem_ctrls.wrQLenPdf::20                    149                       # What write queue length does an incoming req see
system.mem_ctrls.wrQLenPdf::21                    154                       # What write queue length does an incoming req see
system.mem_ctrls.wrQLenPdf::22                    150                       # What write queue length does an incoming req see
system.mem_ctrls.wrQLenPdf::23                    150                       # What write queue length does an incoming req see
system.mem_ctrls.wrQLenPdf::24                    147                       # What write queue length does an incoming req see
system.mem_ctrls.wrQLenPdf::25                    156                       # What write queue length does an incoming req see
system.mem_ctrls.wrQLenPdf::26                    163                       # What write queue length does an incoming req see
system.mem_ctrls.wrQLenPdf::27                    152                       # What write queue length does an incoming req see
system.mem_ctrls.wrQLenPdf::28                    155                       # What write queue length does an incoming req see
system.mem_ctrls.wrQLenPdf::29                    156                       # What write queue length does an incoming req see
system.mem_ctrls.wrQLenPdf::30                    149                       # What write queue length does an incoming req see
system.mem_ctrls.wrQLenPdf::31                    144                       # What write queue length does an incoming req see
system.mem_ctrls.wrQLenPdf::32                    144                       # What write queue length does an incoming req see
system.mem_ctrls.wrQLenPdf::33                      0                       # What write queue length does an incoming req see
system.mem_ctrls.wrQLenPdf::34                      0                       # What write queue length does an incoming req see
system.mem_ctrls.wrQLenPdf::35                      0                       # What write queue length does an incoming req see
system.mem_ctrls.wrQLenPdf::36                      0                       # What write queue length does an incoming req see
system.mem_ctrls.wrQLenPdf::37                      0                       # What write queue length does an incoming req see
system.mem_ctrls.wrQLenPdf::38                      0                       # What write queue length does an incoming req see
system.mem_ctrls.wrQLenPdf::39                      0                       # What write queue length does an incoming req see
system.mem_ctrls.wrQLenPdf::40                      0                       # What write queue length does an incoming req see
system.mem_ctrls.wrQLenPdf::41                      0                       # What write queue length does an incoming req see
system.mem_ctrls.wrQLenPdf::42                      0                       # What write queue length does an incoming req see
system.mem_ctrls.wrQLenPdf::43                      0                       # What write queue length does an incoming req see
system.mem_ctrls.wrQLenPdf::44                      0                       # What write queue length does an incoming req see
system.mem_ctrls.wrQLenPdf::45                      0                       # What write queue length does an incoming req see
system.mem_ctrls.wrQLenPdf::46                      0                       # What write queue length does an incoming req see
system.mem_ctrls.wrQLenPdf::47                      0                       # What write queue length does an incoming req see
system.mem_ctrls.wrQLenPdf::48                      0                       # What write queue length does an incoming req see
system.mem_ctrls.wrQLenPdf::49                      0                       # What write queue length does an incoming req see
system.mem_ctrls.wrQLenPdf::50                      0                       # What write queue length does an incoming req see
system.mem_ctrls.wrQLenPdf::51                      0                       # What write queue length does an incoming req see
system.mem_ctrls.wrQLenPdf::52                      0                       # What write queue length does an incoming req see
system.mem_ctrls.wrQLenPdf::53                      0                       # What write queue length does an incoming req see
system.mem_ctrls.wrQLenPdf::54                      0                       # What write queue length does an incoming req see
system.mem_ctrls.wrQLenPdf::55                      0                       # What write queue length does an incoming req see
system.mem_ctrls.wrQLenPdf::56                      0                       # What write queue length does an incoming req see
system.mem_ctrls.wrQLenPdf::57                      0                       # What write queue length does an incoming req see
system.mem_ctrls.wrQLenPdf::58                      0                       # What write queue length does an incoming req see
system.mem_ctrls.wrQLenPdf::59                      0                       # What write queue length does an incoming req see
system.mem_ctrls.wrQLenPdf::60                      0                       # What write queue length does an incoming req see
system.mem_ctrls.wrQLenPdf::61                      0                       # What write queue length does an incoming req see
system.mem_ctrls.wrQLenPdf::62                      0                       # What write queue length does an incoming req see
system.mem_ctrls.wrQLenPdf::63                      0                       # What write queue length does an incoming req see
system.mem_ctrls.bytesPerActivate::samples         2051                       # Bytes accessed per row activation
system.mem_ctrls.bytesPerActivate::mean    240.491468                       # Bytes accessed per row activation
system.mem_ctrls.bytesPerActivate::gmean   146.568295                       # Bytes accessed per row activation
system.mem_ctrls.bytesPerActivate::stdev   278.297501                       # Bytes accessed per row activation
system.mem_ctrls.bytesPerActivate::0-127          925     45.10%     45.10% # Bytes accessed per row activation
system.mem_ctrls.bytesPerActivate::128-255          515     25.11%     70.21% # Bytes accessed per row activation
system.mem_ctrls.bytesPerActivate::256-383          197      9.61%     79.81% # Bytes accessed per row activation
system.mem_ctrls.bytesPerActivate::384-511          105      5.12%     84.93% # Bytes accessed per row activation
system.mem_ctrls.bytesPerActivate::512-639           71      3.46%     88.40% # Bytes accessed per row activation
system.mem_ctrls.bytesPerActivate::640-767           49      2.39%     90.78% # Bytes accessed per row activation
system.mem_ctrls.bytesPerActivate::768-895           25      1.22%     92.00% # Bytes accessed per row activation
system.mem_ctrls.bytesPerActivate::896-1023           23      1.12%     93.13% # Bytes accessed per row activation
system.mem_ctrls.bytesPerActivate::1024-1151          141      6.87%    100.00% # Bytes accessed per row activation
system.mem_ctrls.bytesPerActivate::total         2051                       # Bytes accessed per row activation
system.mem_ctrls.rdPerTurnAround::samples          144                       # Reads before turning the bus around for writes
system.mem_ctrls.rdPerTurnAround::mean      36.687500                       # Reads before turning the bus around for writes
system.mem_ctrls.rdPerTurnAround::gmean     31.462802                       # Reads before turning the bus around for writes
system.mem_ctrls.rdPerTurnAround::stdev     23.709922                       # Reads before turning the bus around for writes
system.mem_ctrls.rdPerTurnAround::8-15              7      4.86%      4.86% # Reads before turning the bus around for writes
system.mem_ctrls.rdPerTurnAround::16-23            44     30.56%     35.42% # Reads before turning the bus around for writes
system.mem_ctrls.rdPerTurnAround::24-31            25     17.36%     52.78% # Reads before turning the bus around for writes
system.mem_ctrls.rdPerTurnAround::32-39            23     15.97%     68.75% # Reads before turning the bus around for writes
system.mem_ctrls.rdPerTurnAround::40-47            14      9.72%     78.47% # Reads before turning the bus around for writes
system.mem_ctrls.rdPerTurnAround::48-55            13      9.03%     87.50% # Reads before turning the bus around for writes
system.mem_ctrls.rdPerTurnAround::56-63             2      1.39%     88.89% # Reads before turning the bus around for writes
system.mem_ctrls.rdPerTurnAround::64-71             5      3.47%     92.36% # Reads before turning the bus around for writes
system.mem_ctrls.rdPerTurnAround::72-79             2      1.39%     93.75% # Reads before turning the bus around for writes
system.mem_ctrls.rdPerTurnAround::80-87             3      2.08%     95.83% # Reads before turning the bus around for writes
system.mem_ctrls.rdPerTurnAround::88-95             1      0.69%     96.53% # Reads before turning the bus around for writes
system.mem_ctrls.rdPerTurnAround::96-103            1      0.69%     97.22% # Reads before turning the bus around for writes
system.mem_ctrls.rdPerTurnAround::120-127            2      1.39%     98.61% # Reads before turning the bus around for writes
system.mem_ctrls.rdPerTurnAround::128-135            1      0.69%     99.31% # Reads before turning the bus around for writes
system.mem_ctrls.rdPerTurnAround::136-143            1      0.69%    100.00% # Reads before turning the bus around for writes
system.mem_ctrls.rdPerTurnAround::total           144                       # Reads before turning the bus around for writes
system.mem_ctrls.wrPerTurnAround::samples          144                       # Writes before turning the bus around for reads
system.mem_ctrls.wrPerTurnAround::mean      16.666667                       # Writes before turning the bus around for reads
system.mem_ctrls.wrPerTurnAround::gmean     16.627036                       # Writes before turning the bus around for reads
system.mem_ctrls.wrPerTurnAround::stdev      1.194392                       # Writes before turning the bus around for reads
system.mem_ctrls.wrPerTurnAround::16              105     72.92%     72.92% # Writes before turning the bus around for reads
system.mem_ctrls.wrPerTurnAround::17                3      2.08%     75.00% # Writes before turning the bus around for reads
system.mem_ctrls.wrPerTurnAround::18               22     15.28%     90.28% # Writes before turning the bus around for reads
system.mem_ctrls.wrPerTurnAround::19                8      5.56%     95.83% # Writes before turning the bus around for reads
system.mem_ctrls.wrPerTurnAround::20                5      3.47%     99.31% # Writes before turning the bus around for reads
system.mem_ctrls.wrPerTurnAround::21                1      0.69%    100.00% # Writes before turning the bus around for reads
system.mem_ctrls.wrPerTurnAround::total           144                       # Writes before turning the bus around for reads
system.mem_ctrls.totQLat                     68631000                       # Total ticks spent queuing
system.mem_ctrls.totMemAccLat               168174750                       # Total ticks spent from burst creation until serviced by the DRAM
system.mem_ctrls.totBusLat                   26545000                       # Total ticks spent in databus transfers
system.mem_ctrls.avgQLat                     12927.29                       # Average queueing delay per DRAM burst
system.mem_ctrls.avgBusLat                    5000.00                       # Average bus latency per DRAM burst
system.mem_ctrls.avgMemAccLat                31677.29                       # Average memory access latency per DRAM burst
system.mem_ctrls.avgRdBW                       510.73                       # Average DRAM read bandwidth in MiByte/s
system.mem_ctrls.avgWrBW                       230.88                       # Average achieved write bandwidth in MiByte/s
system.mem_ctrls.avgRdBWSys                    512.17                       # Average system read bandwidth in MiByte/s
system.mem_ctrls.avgWrBWSys                    233.67                       # Average system write bandwidth in MiByte/s
system.mem_ctrls.peakBW                      12800.00                       # Theoretical peak bandwidth in MiByte/s
system.mem_ctrls.busUtil                         5.79                       # Data bus utilization in percentage
system.mem_ctrls.busUtilRead                     3.99                       # Data bus utilization in percentage for reads
system.mem_ctrls.busUtilWrite                    1.80                       # Data bus utilization in percentage for writes
system.mem_ctrls.avgRdQLen                       1.38                       # Average read queue length when enqueuing
system.mem_ctrls.avgWrQLen                      24.83                       # Average write queue length when enqueuing
system.mem_ctrls.readRowHits                     4066                       # Number of row buffer hits during reads
system.mem_ctrls.writeRowHits                    1590                       # Number of row buffer hits during writes
system.mem_ctrls.readRowHitRate                 76.59                       # Row buffer hit rate for reads
system.mem_ctrls.writeRowHitRate                65.46                       # Row buffer hit rate for writes
system.mem_ctrls.avgGap                      85521.09                       # Average gap between requests
system.mem_ctrls.pageHitRate                    73.09                       # Row buffer hit rate, read and write combined
system.mem_ctrls_0.actEnergy                  7786800                       # Energy for activate commands per rank (pJ)
system.mem_ctrls_0.preEnergy                  4248750                       # Energy for precharge commands per rank (pJ)
system.mem_ctrls_0.readEnergy                19656000                       # Energy for read commands per rank (pJ)
system.mem_ctrls_0.writeEnergy                9499680                       # Energy for write commands per rank (pJ)
system.mem_ctrls_0.refreshEnergy             43227600                       # Energy for refresh commands per rank (pJ)
system.mem_ctrls_0.actBackEnergy            380183445                       # Energy for active background per rank (pJ)
system.mem_ctrls_0.preBackEnergy             63760500                       # Energy for precharge background per rank (pJ)
system.mem_ctrls_0.totalEnergy              528362775                       # Total energy per rank (pJ)
system.mem_ctrls_0.averagePower            798.021081                       # Core power per rank (mW)
system.mem_ctrls_0.memoryStateTime::IDLE    104619750                       # Time in different power states
system.mem_ctrls_0.memoryStateTime::REF      22100000                       # Time in different power states
system.mem_ctrls_0.memoryStateTime::PRE_PDN            0                       # Time in different power states
system.mem_ctrls_0.memoryStateTime::ACT     536348750                       # Time in different power states
system.mem_ctrls_0.memoryStateTime::ACT_PDN            0                       # Time in different power states
system.mem_ctrls_1.actEnergy                  7718760                       # Energy for activate commands per rank (pJ)
system.mem_ctrls_1.preEnergy                  4211625                       # Energy for precharge commands per rank (pJ)
system.mem_ctrls_1.readEnergy                21738600                       # Energy for read commands per rank (pJ)
system.mem_ctrls_1.writeEnergy                6052320                       # Energy for write commands per rank (pJ)
system.mem_ctrls_1.refreshEnergy             43227600                       # Energy for refresh commands per rank (pJ)
system.mem_ctrls_1.actBackEnergy            397640835                       # Energy for active background per rank (pJ)
system.mem_ctrls_1.preBackEnergy             48447000                       # Energy for precharge background per rank (pJ)
system.mem_ctrls_1.totalEnergy              529036740                       # Total energy per rank (pJ)
system.mem_ctrls_1.averagePower            799.039015                       # Core power per rank (mW)
system.mem_ctrls_1.memoryStateTime::IDLE     78978750                       # Time in different power states
system.mem_ctrls_1.memoryStateTime::REF      22100000                       # Time in different power states
system.mem_ctrls_1.memoryStateTime::PRE_PDN            0                       # Time in different power states
system.mem_ctrls_1.memoryStateTime::ACT     561828750                       # Time in different power states
system.mem_ctrls_1.memoryStateTime::ACT_PDN            0                       # Time in different power states
system.cpu_voltage_domain.voltage                   1                       # Voltage in Volts
system.cpu_clk_domain.clock                       500                       # Clock period in ticks
system.cpu.dtb.fetch_hits                           0                       # ITB hits
system.cpu.dtb.fetch_misses                         0                       # ITB misses
system.cpu.dtb.fetch_acv                            0                       # ITB acv
system.cpu.dtb.fetch_accesses                       0                       # ITB accesses
system.cpu.dtb.read_hits                            0                       # DTB read hits
system.cpu.dtb.read_misses                          0                       # DTB read misses
system.cpu.dtb.read_acv                             0                       # DTB read access violations
system.cpu.dtb.read_accesses                        0                       # DTB read accesses
system.cpu.dtb.write_hits                           0                       # DTB write hits
system.cpu.dtb.write_misses                         0                       # DTB write misses
system.cpu.dtb.write_acv                            0                       # DTB write access violations
system.cpu.dtb.write_accesses                       0                       # DTB write accesses
system.cpu.dtb.data_hits                            0                       # DTB hits
system.cpu.dtb.data_misses                          0                       # DTB misses
system.cpu.dtb.data_acv                             0                       # DTB access violations
system.cpu.dtb.data_accesses                        0                       # DTB accesses
system.cpu.itb.fetch_hits                           0                       # ITB hits
system.cpu.itb.fetch_misses                         0                       # ITB misses
system.cpu.itb.fetch_acv                            0                       # ITB acv
system.cpu.itb.fetch_accesses                       0                       # ITB accesses
system.cpu.itb.read_hits                            0                       # DTB read hits
system.cpu.itb.read_misses                          0                       # DTB read misses
system.cpu.itb.read_acv                             0                       # DTB read access violations
system.cpu.itb.read_accesses                        0                       # DTB read accesses
system.cpu.itb.write_hits                           0                       # DTB write hits
system.cpu.itb.write_misses                         0                       # DTB write misses
system.cpu.itb.write_acv                            0                       # DTB write access violations
system.cpu.itb.write_accesses                       0                       # DTB write accesses
system.cpu.itb.data_hits                            0                       # DTB hits
system.cpu.itb.data_misses                          0                       # DTB misses
system.cpu.itb.data_acv                             0                       # DTB access violations
system.cpu.itb.data_accesses                        0                       # DTB accesses
system.cpu.numCycles                                0                       # number of cpu cycles simulated
system.cpu.numWorkItemsStarted                      0                       # number of work items this cpu started
system.cpu.numWorkItemsCompleted                    0                       # number of work items this cpu completed
system.cpu.committedInsts                           0                       # Number of instructions committed
system.cpu.committedOps                             0                       # Number of ops (including micro ops) committed
system.cpu.num_int_alu_accesses                     0                       # Number of integer alu accesses
system.cpu.num_fp_alu_accesses                      0                       # Number of float alu accesses
system.cpu.num_func_calls                           0                       # number of times a function call or return occured
system.cpu.num_conditional_control_insts            0                       # number of instructions that are conditional controls
system.cpu.num_int_insts                            0                       # number of integer instructions
system.cpu.num_fp_insts                             0                       # number of float instructions
system.cpu.num_int_register_reads                   0                       # number of times the integer registers were read
system.cpu.num_int_register_writes                  0                       # number of times the integer registers were written
system.cpu.num_fp_register_reads                    0                       # number of times the floating registers were read
system.cpu.num_fp_register_writes                   0                       # number of times the floating registers were written
system.cpu.num_mem_refs                             0                       # number of memory refs
system.cpu.num_load_insts                           0                       # Number of load instructions
system.cpu.num_store_insts                          0                       # Number of store instructions
system.cpu.num_idle_cycles                          0                       # Number of idle cycles
system.cpu.num_busy_cycles                          0                       # Number of busy cycles
system.cpu.not_idle_fraction                        1                       # Percentage of non-idle cycles
system.cpu.idle_fraction                            0                       # Percentage of idle cycles
system.cpu.op_class::No_OpClass                     0                       # Class of executed instruction
system.cpu.op_class::IntAlu                         0                       # Class of executed instruction
system.cpu.op_class::IntMult                        0                       # Class of executed instruction
system.cpu.op_class::IntDiv                         0                       # Class of executed instruction
system.cpu.op_class::FloatAdd                       0                       # Class of executed instruction
system.cpu.op_class::FloatCmp                       0                       # Class of executed instruction
system.cpu.op_class::FloatCvt                       0                       # Class of executed instruction
system.cpu.op_class::FloatMult                      0                       # Class of executed instruction
system.cpu.op_class::FloatDiv                       0                       # Class of executed instruction
system.cpu.op_class::FloatSqrt                      0                       # Class of executed instruction
system.cpu.op_class::SimdAdd                        0                       # Class of executed instruction
system.cpu.op_class::SimdAddAcc                     0                       # Class of executed instruction
system.cpu.op_class::SimdAlu                        0                       # Class of executed instruction
system.cpu.op_class::SimdCmp                        0                       # Class of executed instruction
system.cpu.op_class::SimdCvt                        0                       # Class of executed instruction
system.cpu.op_class::SimdMisc                       0                       # Class of executed instruction
system.cpu.op_class::SimdMult                       0                       # Class of executed instruction
system.cpu.op_class::SimdMultAcc                    0                       # Class of executed instruction
system.cpu.op_class::SimdShift                      0                       # Class of executed instruction
system.cpu.op_class::SimdShiftAcc                   0                       # Class of executed instruction
system.cpu.op_class::SimdSqrt                       0                       # Class of executed instruction
system.cpu.op_class::SimdFloatAdd                   0                       # Class of executed instruction
system.cpu.op_class::SimdFloatAlu                   0                       # Class of executed instruction
system.cpu.op_class::SimdFloatCmp                   0                       # Class of executed instruction
system.cpu.op_class::SimdFloatCvt                   0                       # Class of executed instruction
system.cpu.op_class::SimdFloatDiv                   0                       # Class of executed instruction
system.cpu.op_class::SimdFloatMisc                  0                       # Class of executed instruction
system.cpu.op_class::SimdFloatMult                  0                       # Class of executed instruction
system.cpu.op_class::SimdFloatMultAcc               0                       # Class of executed instruction
system.cpu.op_class::SimdFloatSqrt                  0                       # Class of executed instruction
system.cpu.op_class::MemRead                        0                       # Class of executed instruction
system.cpu.op_class::MemWrite                       0                       # Class of executed instruction
system.cpu.op_class::IprAccess                      0                       # Class of executed instruction
system.cpu.op_class::InstPrefetch                   0                       # Class of executed instruction
system.cpu.op_class::total                          0                       # Class of executed instruction
system.cpu.kern.inst.arm                            0                       # number of arm instructions executed
system.cpu.kern.inst.quiesce                        0                       # number of quiesce instructions executed
system.cpu.kern.inst.hwrei                       2781                       # number of hwrei instructions executed
system.cpu.kern.ipl_count::0                      635     49.15%     49.15% # number of times we switched to this ipl
system.cpu.kern.ipl_count::22                       1      0.08%     49.23% # number of times we switched to this ipl
system.cpu.kern.ipl_count::31                     656     50.77%    100.00% # number of times we switched to this ipl
system.cpu.kern.ipl_count::total                 1292                       # number of times we switched to this ipl
system.cpu.kern.ipl_good::0                       633     49.96%     49.96% # number of times we switched to this ipl from a different ipl
system.cpu.kern.ipl_good::22                        1      0.08%     50.04% # number of times we switched to this ipl from a different ipl
system.cpu.kern.ipl_good::31                      633     49.96%    100.00% # number of times we switched to this ipl from a different ipl
system.cpu.kern.ipl_good::total                  1267                       # number of times we switched to this ipl from a different ipl
system.cpu.kern.ipl_ticks::0                600189500     90.29%     90.29% # number of cycles we spent at this ipl
system.cpu.kern.ipl_ticks::22                 1174500      0.18%     90.46% # number of cycles we spent at this ipl
system.cpu.kern.ipl_ticks::31                63406500      9.54%    100.00% # number of cycles we spent at this ipl
system.cpu.kern.ipl_ticks::total            664770500                       # number of cycles we spent at this ipl
system.cpu.kern.ipl_used::0                  0.996850                       # fraction of swpipl calls that actually changed the ipl
system.cpu.kern.ipl_used::22                        1                       # fraction of swpipl calls that actually changed the ipl
system.cpu.kern.ipl_used::31                 0.964939                       # fraction of swpipl calls that actually changed the ipl
system.cpu.kern.ipl_used::total              0.980650                       # fraction of swpipl calls that actually changed the ipl
system.cpu.kern.syscall::2                          1      5.56%      5.56% # number of syscalls executed
system.cpu.kern.syscall::3                          2     11.11%     16.67% # number of syscalls executed
system.cpu.kern.syscall::6                          2     11.11%     27.78% # number of syscalls executed
system.cpu.kern.syscall::17                         1      5.56%     33.33% # number of syscalls executed
system.cpu.kern.syscall::19                         1      5.56%     38.89% # number of syscalls executed
system.cpu.kern.syscall::33                         1      5.56%     44.44% # number of syscalls executed
system.cpu.kern.syscall::45                         3     16.67%     61.11% # number of syscalls executed
system.cpu.kern.syscall::48                         1      5.56%     66.67% # number of syscalls executed
system.cpu.kern.syscall::59                         1      5.56%     72.22% # number of syscalls executed
system.cpu.kern.syscall::71                         4     22.22%     94.44% # number of syscalls executed
system.cpu.kern.syscall::74                         1      5.56%    100.00% # number of syscalls executed
system.cpu.kern.syscall::total                     18                       # number of syscalls executed
system.cpu.kern.callpal::swpctx                   118      8.10%      8.10% # number of callpals executed
system.cpu.kern.callpal::tbi                        6      0.41%      8.51% # number of callpals executed
system.cpu.kern.callpal::swpipl                  1107     75.98%     84.49% # number of callpals executed
system.cpu.kern.callpal::rdps                       3      0.21%     84.69% # number of callpals executed
system.cpu.kern.callpal::wrusp                      1      0.07%     84.76% # number of callpals executed
system.cpu.kern.callpal::rdusp                      1      0.07%     84.83% # number of callpals executed
system.cpu.kern.callpal::rti                      184     12.63%     97.46% # number of callpals executed
system.cpu.kern.callpal::callsys                   33      2.26%     99.73% # number of callpals executed
system.cpu.kern.callpal::imb                        4      0.27%    100.00% # number of callpals executed
system.cpu.kern.callpal::total                   1457                       # number of callpals executed
system.cpu.kern.mode_switch::kernel               302                       # number of protection mode switches
system.cpu.kern.mode_switch::user                 181                       # number of protection mode switches
system.cpu.kern.mode_switch::idle                   0                       # number of protection mode switches
system.cpu.kern.mode_good::kernel                 181                      
system.cpu.kern.mode_good::user                   181                      
system.cpu.kern.mode_good::idle                     0                      
system.cpu.kern.mode_switch_good::kernel     0.599338                       # fraction of useful protection mode switches
system.cpu.kern.mode_switch_good::user              1                       # fraction of useful protection mode switches
system.cpu.kern.mode_switch_good::idle            nan                       # fraction of useful protection mode switches
system.cpu.kern.mode_switch_good::total      0.749482                       # fraction of useful protection mode switches
system.cpu.kern.mode_ticks::kernel          434013500     65.29%     65.29% # number of ticks spent at the given mode
system.cpu.kern.mode_ticks::user            230750000     34.71%    100.00% # number of ticks spent at the given mode
system.cpu.kern.mode_ticks::idle                    0      0.00%    100.00% # number of ticks spent at the given mode
system.cpu.kern.swap_context                      118                       # number of times the context was actually changed
system.cpu.dcache.tags.replacements             18287                       # number of replacements
system.cpu.dcache.tags.tagsinuse                  512                       # Cycle average of tags in use
system.cpu.dcache.tags.total_refs              199756                       # Total number of references to valid blocks.
system.cpu.dcache.tags.sampled_refs             18287                       # Sample count of references to valid blocks.
system.cpu.dcache.tags.avg_refs             10.923388                       # Average number of references to valid blocks.
system.cpu.dcache.tags.warmup_cycle                 0                       # Cycle when the warmup percentage was hit.
system.cpu.dcache.tags.occ_blocks::cpu.data    25.985972                       # Average occupied blocks per requestor
system.cpu.dcache.tags.occ_blocks::switch_cpus.data   486.014028                       # Average occupied blocks per requestor
system.cpu.dcache.tags.occ_percent::cpu.data     0.050754                       # Average percentage of cache occupancy
system.cpu.dcache.tags.occ_percent::switch_cpus.data     0.949246                       # Average percentage of cache occupancy
system.cpu.dcache.tags.occ_percent::total            1                       # Average percentage of cache occupancy
system.cpu.dcache.tags.occ_task_id_blocks::1024          512                       # Occupied blocks per task id
system.cpu.dcache.tags.age_task_id_blocks_1024::0          344                       # Occupied blocks per task id
system.cpu.dcache.tags.age_task_id_blocks_1024::1          167                       # Occupied blocks per task id
system.cpu.dcache.tags.age_task_id_blocks_1024::2            1                       # Occupied blocks per task id
system.cpu.dcache.tags.occ_task_id_percent::1024            1                       # Percentage of cache occupancy per task id
system.cpu.dcache.tags.tag_accesses           1181827                       # Number of tag accesses
system.cpu.dcache.tags.data_accesses          1181827                       # Number of data accesses
system.cpu.dcache.ReadReq_hits::switch_cpus.data       133285                       # number of ReadReq hits
system.cpu.dcache.ReadReq_hits::total          133285                       # number of ReadReq hits
system.cpu.dcache.WriteReq_hits::switch_cpus.data        59000                       # number of WriteReq hits
system.cpu.dcache.WriteReq_hits::total          59000                       # number of WriteReq hits
system.cpu.dcache.LoadLockedReq_hits::switch_cpus.data         2221                       # number of LoadLockedReq hits
system.cpu.dcache.LoadLockedReq_hits::total         2221                       # number of LoadLockedReq hits
system.cpu.dcache.StoreCondReq_hits::switch_cpus.data         2378                       # number of StoreCondReq hits
system.cpu.dcache.StoreCondReq_hits::total         2378                       # number of StoreCondReq hits
system.cpu.dcache.demand_hits::switch_cpus.data       192285                       # number of demand (read+write) hits
system.cpu.dcache.demand_hits::total           192285                       # number of demand (read+write) hits
system.cpu.dcache.overall_hits::switch_cpus.data       192285                       # number of overall hits
system.cpu.dcache.overall_hits::total          192285                       # number of overall hits
system.cpu.dcache.ReadReq_misses::switch_cpus.data        26367                       # number of ReadReq misses
system.cpu.dcache.ReadReq_misses::total         26367                       # number of ReadReq misses
system.cpu.dcache.WriteReq_misses::switch_cpus.data        67240                       # number of WriteReq misses
system.cpu.dcache.WriteReq_misses::total        67240                       # number of WriteReq misses
system.cpu.dcache.LoadLockedReq_misses::switch_cpus.data          394                       # number of LoadLockedReq misses
system.cpu.dcache.LoadLockedReq_misses::total          394                       # number of LoadLockedReq misses
system.cpu.dcache.demand_misses::switch_cpus.data        93607                       # number of demand (read+write) misses
system.cpu.dcache.demand_misses::total          93607                       # number of demand (read+write) misses
system.cpu.dcache.overall_misses::switch_cpus.data        93607                       # number of overall misses
system.cpu.dcache.overall_misses::total         93607                       # number of overall misses
system.cpu.dcache.ReadReq_miss_latency::switch_cpus.data    682670497                       # number of ReadReq miss cycles
system.cpu.dcache.ReadReq_miss_latency::total    682670497                       # number of ReadReq miss cycles
system.cpu.dcache.WriteReq_miss_latency::switch_cpus.data   1803031732                       # number of WriteReq miss cycles
system.cpu.dcache.WriteReq_miss_latency::total   1803031732                       # number of WriteReq miss cycles
system.cpu.dcache.LoadLockedReq_miss_latency::switch_cpus.data      6886500                       # number of LoadLockedReq miss cycles
system.cpu.dcache.LoadLockedReq_miss_latency::total      6886500                       # number of LoadLockedReq miss cycles
system.cpu.dcache.demand_miss_latency::switch_cpus.data   2485702229                       # number of demand (read+write) miss cycles
system.cpu.dcache.demand_miss_latency::total   2485702229                       # number of demand (read+write) miss cycles
system.cpu.dcache.overall_miss_latency::switch_cpus.data   2485702229                       # number of overall miss cycles
system.cpu.dcache.overall_miss_latency::total   2485702229                       # number of overall miss cycles
system.cpu.dcache.ReadReq_accesses::switch_cpus.data       159652                       # number of ReadReq accesses(hits+misses)
system.cpu.dcache.ReadReq_accesses::total       159652                       # number of ReadReq accesses(hits+misses)
system.cpu.dcache.WriteReq_accesses::switch_cpus.data       126240                       # number of WriteReq accesses(hits+misses)
system.cpu.dcache.WriteReq_accesses::total       126240                       # number of WriteReq accesses(hits+misses)
system.cpu.dcache.LoadLockedReq_accesses::switch_cpus.data         2615                       # number of LoadLockedReq accesses(hits+misses)
system.cpu.dcache.LoadLockedReq_accesses::total         2615                       # number of LoadLockedReq accesses(hits+misses)
system.cpu.dcache.StoreCondReq_accesses::switch_cpus.data         2378                       # number of StoreCondReq accesses(hits+misses)
system.cpu.dcache.StoreCondReq_accesses::total         2378                       # number of StoreCondReq accesses(hits+misses)
system.cpu.dcache.demand_accesses::switch_cpus.data       285892                       # number of demand (read+write) accesses
system.cpu.dcache.demand_accesses::total       285892                       # number of demand (read+write) accesses
system.cpu.dcache.overall_accesses::switch_cpus.data       285892                       # number of overall (read+write) accesses
system.cpu.dcache.overall_accesses::total       285892                       # number of overall (read+write) accesses
system.cpu.dcache.ReadReq_miss_rate::switch_cpus.data     0.165153                       # miss rate for ReadReq accesses
system.cpu.dcache.ReadReq_miss_rate::total     0.165153                       # miss rate for ReadReq accesses
system.cpu.dcache.WriteReq_miss_rate::switch_cpus.data     0.532636                       # miss rate for WriteReq accesses
system.cpu.dcache.WriteReq_miss_rate::total     0.532636                       # miss rate for WriteReq accesses
system.cpu.dcache.LoadLockedReq_miss_rate::switch_cpus.data     0.150669                       # miss rate for LoadLockedReq accesses
system.cpu.dcache.LoadLockedReq_miss_rate::total     0.150669                       # miss rate for LoadLockedReq accesses
system.cpu.dcache.demand_miss_rate::switch_cpus.data     0.327421                       # miss rate for demand accesses
system.cpu.dcache.demand_miss_rate::total     0.327421                       # miss rate for demand accesses
system.cpu.dcache.overall_miss_rate::switch_cpus.data     0.327421                       # miss rate for overall accesses
system.cpu.dcache.overall_miss_rate::total     0.327421                       # miss rate for overall accesses
system.cpu.dcache.ReadReq_avg_miss_latency::switch_cpus.data 25891.094815                       # average ReadReq miss latency
system.cpu.dcache.ReadReq_avg_miss_latency::total 25891.094815                       # average ReadReq miss latency
system.cpu.dcache.WriteReq_avg_miss_latency::switch_cpus.data 26814.868114                       # average WriteReq miss latency
system.cpu.dcache.WriteReq_avg_miss_latency::total 26814.868114                       # average WriteReq miss latency
system.cpu.dcache.LoadLockedReq_avg_miss_latency::switch_cpus.data 17478.426396                       # average LoadLockedReq miss latency
system.cpu.dcache.LoadLockedReq_avg_miss_latency::total 17478.426396                       # average LoadLockedReq miss latency
system.cpu.dcache.demand_avg_miss_latency::switch_cpus.data 26554.661820                       # average overall miss latency
system.cpu.dcache.demand_avg_miss_latency::total 26554.661820                       # average overall miss latency
system.cpu.dcache.overall_avg_miss_latency::switch_cpus.data 26554.661820                       # average overall miss latency
system.cpu.dcache.overall_avg_miss_latency::total 26554.661820                       # average overall miss latency
system.cpu.dcache.blocked_cycles::no_mshrs        73096                       # number of cycles access was blocked
system.cpu.dcache.blocked_cycles::no_targets           89                       # number of cycles access was blocked
system.cpu.dcache.blocked::no_mshrs              4606                       # number of cycles access was blocked
system.cpu.dcache.blocked::no_targets               2                       # number of cycles access was blocked
system.cpu.dcache.avg_blocked_cycles::no_mshrs    15.869735                       # average number of cycles each access was blocked
system.cpu.dcache.avg_blocked_cycles::no_targets    44.500000                       # average number of cycles each access was blocked
system.cpu.dcache.fast_writes                       0                       # number of fast writes performed
system.cpu.dcache.cache_copies                      0                       # number of cache copies performed
system.cpu.dcache.writebacks::writebacks        13037                       # number of writebacks
system.cpu.dcache.writebacks::total             13037                       # number of writebacks
system.cpu.dcache.ReadReq_mshr_hits::switch_cpus.data        17393                       # number of ReadReq MSHR hits
system.cpu.dcache.ReadReq_mshr_hits::total        17393                       # number of ReadReq MSHR hits
system.cpu.dcache.WriteReq_mshr_hits::switch_cpus.data        58147                       # number of WriteReq MSHR hits
system.cpu.dcache.WriteReq_mshr_hits::total        58147                       # number of WriteReq MSHR hits
system.cpu.dcache.LoadLockedReq_mshr_hits::switch_cpus.data          172                       # number of LoadLockedReq MSHR hits
system.cpu.dcache.LoadLockedReq_mshr_hits::total          172                       # number of LoadLockedReq MSHR hits
system.cpu.dcache.demand_mshr_hits::switch_cpus.data        75540                       # number of demand (read+write) MSHR hits
system.cpu.dcache.demand_mshr_hits::total        75540                       # number of demand (read+write) MSHR hits
system.cpu.dcache.overall_mshr_hits::switch_cpus.data        75540                       # number of overall MSHR hits
system.cpu.dcache.overall_mshr_hits::total        75540                       # number of overall MSHR hits
system.cpu.dcache.ReadReq_mshr_misses::switch_cpus.data         8974                       # number of ReadReq MSHR misses
system.cpu.dcache.ReadReq_mshr_misses::total         8974                       # number of ReadReq MSHR misses
system.cpu.dcache.WriteReq_mshr_misses::switch_cpus.data         9093                       # number of WriteReq MSHR misses
system.cpu.dcache.WriteReq_mshr_misses::total         9093                       # number of WriteReq MSHR misses
system.cpu.dcache.LoadLockedReq_mshr_misses::switch_cpus.data          222                       # number of LoadLockedReq MSHR misses
system.cpu.dcache.LoadLockedReq_mshr_misses::total          222                       # number of LoadLockedReq MSHR misses
system.cpu.dcache.demand_mshr_misses::switch_cpus.data        18067                       # number of demand (read+write) MSHR misses
system.cpu.dcache.demand_mshr_misses::total        18067                       # number of demand (read+write) MSHR misses
system.cpu.dcache.overall_mshr_misses::switch_cpus.data        18067                       # number of overall MSHR misses
system.cpu.dcache.overall_mshr_misses::total        18067                       # number of overall MSHR misses
system.cpu.dcache.WriteReq_mshr_uncacheable::switch_cpus.data            1                       # number of WriteReq MSHR uncacheable
system.cpu.dcache.WriteReq_mshr_uncacheable::total            1                       # number of WriteReq MSHR uncacheable
system.cpu.dcache.overall_mshr_uncacheable_misses::switch_cpus.data            1                       # number of overall MSHR uncacheable misses
system.cpu.dcache.overall_mshr_uncacheable_misses::total            1                       # number of overall MSHR uncacheable misses
system.cpu.dcache.ReadReq_mshr_miss_latency::switch_cpus.data    219453753                       # number of ReadReq MSHR miss cycles
system.cpu.dcache.ReadReq_mshr_miss_latency::total    219453753                       # number of ReadReq MSHR miss cycles
system.cpu.dcache.WriteReq_mshr_miss_latency::switch_cpus.data    247396311                       # number of WriteReq MSHR miss cycles
system.cpu.dcache.WriteReq_mshr_miss_latency::total    247396311                       # number of WriteReq MSHR miss cycles
system.cpu.dcache.LoadLockedReq_mshr_miss_latency::switch_cpus.data      4008750                       # number of LoadLockedReq MSHR miss cycles
system.cpu.dcache.LoadLockedReq_mshr_miss_latency::total      4008750                       # number of LoadLockedReq MSHR miss cycles
system.cpu.dcache.demand_mshr_miss_latency::switch_cpus.data    466850064                       # number of demand (read+write) MSHR miss cycles
system.cpu.dcache.demand_mshr_miss_latency::total    466850064                       # number of demand (read+write) MSHR miss cycles
system.cpu.dcache.overall_mshr_miss_latency::switch_cpus.data    466850064                       # number of overall MSHR miss cycles
system.cpu.dcache.overall_mshr_miss_latency::total    466850064                       # number of overall MSHR miss cycles
system.cpu.dcache.WriteReq_mshr_uncacheable_latency::switch_cpus.data       223500                       # number of WriteReq MSHR uncacheable cycles
system.cpu.dcache.WriteReq_mshr_uncacheable_latency::total       223500                       # number of WriteReq MSHR uncacheable cycles
system.cpu.dcache.overall_mshr_uncacheable_latency::switch_cpus.data       223500                       # number of overall MSHR uncacheable cycles
system.cpu.dcache.overall_mshr_uncacheable_latency::total       223500                       # number of overall MSHR uncacheable cycles
system.cpu.dcache.ReadReq_mshr_miss_rate::switch_cpus.data     0.056210                       # mshr miss rate for ReadReq accesses
system.cpu.dcache.ReadReq_mshr_miss_rate::total     0.056210                       # mshr miss rate for ReadReq accesses
system.cpu.dcache.WriteReq_mshr_miss_rate::switch_cpus.data     0.072029                       # mshr miss rate for WriteReq accesses
system.cpu.dcache.WriteReq_mshr_miss_rate::total     0.072029                       # mshr miss rate for WriteReq accesses
system.cpu.dcache.LoadLockedReq_mshr_miss_rate::switch_cpus.data     0.084895                       # mshr miss rate for LoadLockedReq accesses
system.cpu.dcache.LoadLockedReq_mshr_miss_rate::total     0.084895                       # mshr miss rate for LoadLockedReq accesses
system.cpu.dcache.demand_mshr_miss_rate::switch_cpus.data     0.063195                       # mshr miss rate for demand accesses
system.cpu.dcache.demand_mshr_miss_rate::total     0.063195                       # mshr miss rate for demand accesses
system.cpu.dcache.overall_mshr_miss_rate::switch_cpus.data     0.063195                       # mshr miss rate for overall accesses
system.cpu.dcache.overall_mshr_miss_rate::total     0.063195                       # mshr miss rate for overall accesses
system.cpu.dcache.ReadReq_avg_mshr_miss_latency::switch_cpus.data 24454.396367                       # average ReadReq mshr miss latency
system.cpu.dcache.ReadReq_avg_mshr_miss_latency::total 24454.396367                       # average ReadReq mshr miss latency
system.cpu.dcache.WriteReq_avg_mshr_miss_latency::switch_cpus.data 27207.336523                       # average WriteReq mshr miss latency
system.cpu.dcache.WriteReq_avg_mshr_miss_latency::total 27207.336523                       # average WriteReq mshr miss latency
system.cpu.dcache.LoadLockedReq_avg_mshr_miss_latency::switch_cpus.data 18057.432432                       # average LoadLockedReq mshr miss latency
system.cpu.dcache.LoadLockedReq_avg_mshr_miss_latency::total 18057.432432                       # average LoadLockedReq mshr miss latency
system.cpu.dcache.demand_avg_mshr_miss_latency::switch_cpus.data 25839.932695                       # average overall mshr miss latency
system.cpu.dcache.demand_avg_mshr_miss_latency::total 25839.932695                       # average overall mshr miss latency
system.cpu.dcache.overall_avg_mshr_miss_latency::switch_cpus.data 25839.932695                       # average overall mshr miss latency
system.cpu.dcache.overall_avg_mshr_miss_latency::total 25839.932695                       # average overall mshr miss latency
system.cpu.dcache.WriteReq_avg_mshr_uncacheable_latency::switch_cpus.data       223500                       # average WriteReq mshr uncacheable latency
system.cpu.dcache.WriteReq_avg_mshr_uncacheable_latency::total       223500                       # average WriteReq mshr uncacheable latency
system.cpu.dcache.overall_avg_mshr_uncacheable_latency::switch_cpus.data       223500                       # average overall mshr uncacheable latency
system.cpu.dcache.overall_avg_mshr_uncacheable_latency::total       223500                       # average overall mshr uncacheable latency
system.cpu.dcache.no_allocate_misses                0                       # Number of misses that were no-allocate
system.cpu.icache.tags.replacements             10577                       # number of replacements
system.cpu.icache.tags.tagsinuse           511.870545                       # Cycle average of tags in use
system.cpu.icache.tags.total_refs              363389                       # Total number of references to valid blocks.
system.cpu.icache.tags.sampled_refs             10577                       # Sample count of references to valid blocks.
system.cpu.icache.tags.avg_refs             34.356528                       # Average number of references to valid blocks.
system.cpu.icache.tags.warmup_cycle                 0                       # Cycle when the warmup percentage was hit.
system.cpu.icache.tags.occ_blocks::cpu.inst    22.804271                       # Average occupied blocks per requestor
system.cpu.icache.tags.occ_blocks::switch_cpus.inst   489.066275                       # Average occupied blocks per requestor
system.cpu.icache.tags.occ_percent::cpu.inst     0.044540                       # Average percentage of cache occupancy
system.cpu.icache.tags.occ_percent::switch_cpus.inst     0.955208                       # Average percentage of cache occupancy
system.cpu.icache.tags.occ_percent::total     0.999747                       # Average percentage of cache occupancy
system.cpu.icache.tags.occ_task_id_blocks::1024          511                       # Occupied blocks per task id
system.cpu.icache.tags.age_task_id_blocks_1024::0           74                       # Occupied blocks per task id
system.cpu.icache.tags.age_task_id_blocks_1024::1          110                       # Occupied blocks per task id
system.cpu.icache.tags.age_task_id_blocks_1024::2          327                       # Occupied blocks per task id
system.cpu.icache.tags.occ_task_id_percent::1024     0.998047                       # Percentage of cache occupancy per task id
system.cpu.icache.tags.tag_accesses            332662                       # Number of tag accesses
system.cpu.icache.tags.data_accesses           332662                       # Number of data accesses
system.cpu.icache.ReadReq_hits::switch_cpus.inst       148893                       # number of ReadReq hits
system.cpu.icache.ReadReq_hits::total          148893                       # number of ReadReq hits
system.cpu.icache.demand_hits::switch_cpus.inst       148893                       # number of demand (read+write) hits
system.cpu.icache.demand_hits::total           148893                       # number of demand (read+write) hits
system.cpu.icache.overall_hits::switch_cpus.inst       148893                       # number of overall hits
system.cpu.icache.overall_hits::total          148893                       # number of overall hits
system.cpu.icache.ReadReq_misses::switch_cpus.inst        12149                       # number of ReadReq misses
system.cpu.icache.ReadReq_misses::total         12149                       # number of ReadReq misses
system.cpu.icache.demand_misses::switch_cpus.inst        12149                       # number of demand (read+write) misses
system.cpu.icache.demand_misses::total          12149                       # number of demand (read+write) misses
system.cpu.icache.overall_misses::switch_cpus.inst        12149                       # number of overall misses
system.cpu.icache.overall_misses::total         12149                       # number of overall misses
system.cpu.icache.ReadReq_miss_latency::switch_cpus.inst    306653964                       # number of ReadReq miss cycles
system.cpu.icache.ReadReq_miss_latency::total    306653964                       # number of ReadReq miss cycles
system.cpu.icache.demand_miss_latency::switch_cpus.inst    306653964                       # number of demand (read+write) miss cycles
system.cpu.icache.demand_miss_latency::total    306653964                       # number of demand (read+write) miss cycles
system.cpu.icache.overall_miss_latency::switch_cpus.inst    306653964                       # number of overall miss cycles
system.cpu.icache.overall_miss_latency::total    306653964                       # number of overall miss cycles
system.cpu.icache.ReadReq_accesses::switch_cpus.inst       161042                       # number of ReadReq accesses(hits+misses)
system.cpu.icache.ReadReq_accesses::total       161042                       # number of ReadReq accesses(hits+misses)
system.cpu.icache.demand_accesses::switch_cpus.inst       161042                       # number of demand (read+write) accesses
system.cpu.icache.demand_accesses::total       161042                       # number of demand (read+write) accesses
system.cpu.icache.overall_accesses::switch_cpus.inst       161042                       # number of overall (read+write) accesses
system.cpu.icache.overall_accesses::total       161042                       # number of overall (read+write) accesses
system.cpu.icache.ReadReq_miss_rate::switch_cpus.inst     0.075440                       # miss rate for ReadReq accesses
system.cpu.icache.ReadReq_miss_rate::total     0.075440                       # miss rate for ReadReq accesses
system.cpu.icache.demand_miss_rate::switch_cpus.inst     0.075440                       # miss rate for demand accesses
system.cpu.icache.demand_miss_rate::total     0.075440                       # miss rate for demand accesses
system.cpu.icache.overall_miss_rate::switch_cpus.inst     0.075440                       # miss rate for overall accesses
system.cpu.icache.overall_miss_rate::total     0.075440                       # miss rate for overall accesses
system.cpu.icache.ReadReq_avg_miss_latency::switch_cpus.inst 25241.086838                       # average ReadReq miss latency
system.cpu.icache.ReadReq_avg_miss_latency::total 25241.086838                       # average ReadReq miss latency
system.cpu.icache.demand_avg_miss_latency::switch_cpus.inst 25241.086838                       # average overall miss latency
system.cpu.icache.demand_avg_miss_latency::total 25241.086838                       # average overall miss latency
system.cpu.icache.overall_avg_miss_latency::switch_cpus.inst 25241.086838                       # average overall miss latency
system.cpu.icache.overall_avg_miss_latency::total 25241.086838                       # average overall miss latency
system.cpu.icache.blocked_cycles::no_mshrs         1759                       # number of cycles access was blocked
system.cpu.icache.blocked_cycles::no_targets            0                       # number of cycles access was blocked
system.cpu.icache.blocked::no_mshrs                69                       # number of cycles access was blocked
system.cpu.icache.blocked::no_targets               0                       # number of cycles access was blocked
system.cpu.icache.avg_blocked_cycles::no_mshrs    25.492754                       # average number of cycles each access was blocked
system.cpu.icache.avg_blocked_cycles::no_targets          nan                       # average number of cycles each access was blocked
system.cpu.icache.fast_writes                       0                       # number of fast writes performed
system.cpu.icache.cache_copies                      0                       # number of cache copies performed
system.cpu.icache.ReadReq_mshr_hits::switch_cpus.inst         1571                       # number of ReadReq MSHR hits
system.cpu.icache.ReadReq_mshr_hits::total         1571                       # number of ReadReq MSHR hits
system.cpu.icache.demand_mshr_hits::switch_cpus.inst         1571                       # number of demand (read+write) MSHR hits
system.cpu.icache.demand_mshr_hits::total         1571                       # number of demand (read+write) MSHR hits
system.cpu.icache.overall_mshr_hits::switch_cpus.inst         1571                       # number of overall MSHR hits
system.cpu.icache.overall_mshr_hits::total         1571                       # number of overall MSHR hits
system.cpu.icache.ReadReq_mshr_misses::switch_cpus.inst        10578                       # number of ReadReq MSHR misses
system.cpu.icache.ReadReq_mshr_misses::total        10578                       # number of ReadReq MSHR misses
system.cpu.icache.demand_mshr_misses::switch_cpus.inst        10578                       # number of demand (read+write) MSHR misses
system.cpu.icache.demand_mshr_misses::total        10578                       # number of demand (read+write) MSHR misses
system.cpu.icache.overall_mshr_misses::switch_cpus.inst        10578                       # number of overall MSHR misses
system.cpu.icache.overall_mshr_misses::total        10578                       # number of overall MSHR misses
system.cpu.icache.ReadReq_mshr_miss_latency::switch_cpus.inst    245031270                       # number of ReadReq MSHR miss cycles
system.cpu.icache.ReadReq_mshr_miss_latency::total    245031270                       # number of ReadReq MSHR miss cycles
system.cpu.icache.demand_mshr_miss_latency::switch_cpus.inst    245031270                       # number of demand (read+write) MSHR miss cycles
system.cpu.icache.demand_mshr_miss_latency::total    245031270                       # number of demand (read+write) MSHR miss cycles
system.cpu.icache.overall_mshr_miss_latency::switch_cpus.inst    245031270                       # number of overall MSHR miss cycles
system.cpu.icache.overall_mshr_miss_latency::total    245031270                       # number of overall MSHR miss cycles
system.cpu.icache.ReadReq_mshr_miss_rate::switch_cpus.inst     0.065685                       # mshr miss rate for ReadReq accesses
system.cpu.icache.ReadReq_mshr_miss_rate::total     0.065685                       # mshr miss rate for ReadReq accesses
system.cpu.icache.demand_mshr_miss_rate::switch_cpus.inst     0.065685                       # mshr miss rate for demand accesses
system.cpu.icache.demand_mshr_miss_rate::total     0.065685                       # mshr miss rate for demand accesses
system.cpu.icache.overall_mshr_miss_rate::switch_cpus.inst     0.065685                       # mshr miss rate for overall accesses
system.cpu.icache.overall_mshr_miss_rate::total     0.065685                       # mshr miss rate for overall accesses
system.cpu.icache.ReadReq_avg_mshr_miss_latency::switch_cpus.inst 23164.234260                       # average ReadReq mshr miss latency
system.cpu.icache.ReadReq_avg_mshr_miss_latency::total 23164.234260                       # average ReadReq mshr miss latency
system.cpu.icache.demand_avg_mshr_miss_latency::switch_cpus.inst 23164.234260                       # average overall mshr miss latency
[...]
system.switch_cpus.iew.wb_count               1070302                       # cumulative count of insts written-back
system.switch_cpus.iew.wb_producers            539636                       # num instructions producing a value
system.switch_cpus.iew.wb_consumers            718248                       # num instructions consuming a value
system.switch_cpus.iew.wb_penalized                 0                       # number of instrctions required to write to 'other' IQ
system.switch_cpus.iew.wb_rate               0.459487                       # insts written-back per cycle
system.switch_cpus.iew.wb_fanout             0.751323                       # average fanout of values written-back
system.switch_cpus.iew.wb_penalized_rate            0                       # fraction of instructions written-back that wrote to 'other' IQ
system.switch_cpus.commit.commitSquashedInsts       259689                       # The number of squashed insts skipped by commit
system.switch_cpus.commit.commitNonSpecStalls        11973                       # The number of times commit has been forced to stall to communicate backwards
system.switch_cpus.commit.branchMispredicts        14510                       # The number of times a branch was mispredicted
system.switch_cpus.commit.committed_per_cycle::samples      1961211                       # Number of insts commited each cycle
system.switch_cpus.commit.committed_per_cycle::mean     0.493243                       # Number of insts commited each cycle
system.switch_cpus.commit.committed_per_cycle::stdev     1.474650                       # Number of insts commited each cycle
system.switch_cpus.commit.committed_per_cycle::underflows            0      0.00%      0.00% # Number of insts commited each cycle
system.switch_cpus.commit.committed_per_cycle::0      1619413     82.57%     82.57% # Number of insts commited each cycle
system.switch_cpus.commit.committed_per_cycle::1       158059      8.06%     90.63% # Number of insts commited each cycle
system.switch_cpus.commit.committed_per_cycle::2        60187      3.07%     93.70% # Number of insts commited each cycle
system.switch_cpus.commit.committed_per_cycle::3        25183      1.28%     94.98% # Number of insts commited each cycle
system.switch_cpus.commit.committed_per_cycle::4        28248      1.44%     96.42% # Number of insts commited each cycle
system.switch_cpus.commit.committed_per_cycle::5        11125      0.57%     96.99% # Number of insts commited each cycle
system.switch_cpus.commit.committed_per_cycle::6         9447      0.48%     97.47% # Number of insts commited each cycle
system.switch_cpus.commit.committed_per_cycle::7         8320      0.42%     97.90% # Number of insts commited each cycle
system.switch_cpus.commit.committed_per_cycle::8        41229      2.10%    100.00% # Number of insts commited each cycle
system.switch_cpus.commit.committed_per_cycle::overflows            0      0.00%    100.00% # Number of insts commited each cycle
system.switch_cpus.commit.committed_per_cycle::min_value            0                       # Number of insts commited each cycle
system.switch_cpus.commit.committed_per_cycle::max_value            8                       # Number of insts commited each cycle
system.switch_cpus.commit.committed_per_cycle::total      1961211                       # Number of insts commited each cycle
system.switch_cpus.commit.committedInsts       967353                       # Number of instructions committed
system.switch_cpus.commit.committedOps         967353                       # Number of ops (including micro ops) committed
system.switch_cpus.commit.swp_count                 0                       # Number of s/w prefetches committed
system.switch_cpus.commit.refs                 325154                       # Number of memory references committed
system.switch_cpus.commit.loads                177806                       # Number of loads committed
system.switch_cpus.commit.membars                6022                       # Number of memory barriers committed
system.switch_cpus.commit.branches             142115                       # Number of branches committed
system.switch_cpus.commit.fp_insts               4403                       # Number of committed floating point instructions.
system.switch_cpus.commit.int_insts            930462                       # Number of committed integer instructions.
system.switch_cpus.commit.function_calls        13027                       # Number of function calls committed.
system.switch_cpus.commit.op_class_0::No_OpClass        17922      1.85%      1.85% # Class of committed instruction
system.switch_cpus.commit.op_class_0::IntAlu       592087     61.21%     63.06% # Class of committed instruction
system.switch_cpus.commit.op_class_0::IntMult         1035      0.11%     63.17% # Class of committed instruction
system.switch_cpus.commit.op_class_0::IntDiv            0      0.00%     63.17% # Class of committed instruction
system.switch_cpus.commit.op_class_0::FloatAdd         1299      0.13%     63.30% # Class of committed instruction
system.switch_cpus.commit.op_class_0::FloatCmp            1      0.00%     63.30% # Class of committed instruction
system.switch_cpus.commit.op_class_0::FloatCvt            2      0.00%     63.30% # Class of committed instruction
system.switch_cpus.commit.op_class_0::FloatMult            1      0.00%     63.30% # Class of committed instruction
system.switch_cpus.commit.op_class_0::FloatDiv          245      0.03%     63.33% # Class of committed instruction
system.switch_cpus.commit.op_class_0::FloatSqrt            0      0.00%     63.33% # Class of committed instruction
system.switch_cpus.commit.op_class_0::SimdAdd            0      0.00%     63.33% # Class of committed instruction
system.switch_cpus.commit.op_class_0::SimdAddAcc            0      0.00%     63.33% # Class of committed instruction
system.switch_cpus.commit.op_class_0::SimdAlu            0      0.00%     63.33% # Class of committed instruction
system.switch_cpus.commit.op_class_0::SimdCmp            0      0.00%     63.33% # Class of committed instruction
system.switch_cpus.commit.op_class_0::SimdCvt            0      0.00%     63.33% # Class of committed instruction
system.switch_cpus.commit.op_class_0::SimdMisc            0      0.00%     63.33% # Class of committed instruction
system.switch_cpus.commit.op_class_0::SimdMult            0      0.00%     63.33% # Class of committed instruction
system.switch_cpus.commit.op_class_0::SimdMultAcc            0      0.00%     63.33% # Class of committed instruction
system.switch_cpus.commit.op_class_0::SimdShift            0      0.00%     63.33% # Class of committed instruction
system.switch_cpus.commit.op_class_0::SimdShiftAcc            0      0.00%     63.33% # Class of committed instruction
system.switch_cpus.commit.op_class_0::SimdSqrt            0      0.00%     63.33% # Class of committed instruction
system.switch_cpus.commit.op_class_0::SimdFloatAdd            0      0.00%     63.33% # Class of committed instruction
system.switch_cpus.commit.op_class_0::SimdFloatAlu            0      0.00%     63.33% # Class of committed instruction
system.switch_cpus.commit.op_class_0::SimdFloatCmp            0      0.00%     63.33% # Class of committed instruction
system.switch_cpus.commit.op_class_0::SimdFloatCvt            0      0.00%     63.33% # Class of committed instruction
system.switch_cpus.commit.op_class_0::SimdFloatDiv            0      0.00%     63.33% # Class of committed instruction
system.switch_cpus.commit.op_class_0::SimdFloatMisc            0      0.00%     63.33% # Class of committed instruction
system.switch_cpus.commit.op_class_0::SimdFloatMult            0      0.00%     63.33% # Class of committed instruction
system.switch_cpus.commit.op_class_0::SimdFloatMultAcc            0      0.00%     63.33% # Class of committed instruction
system.switch_cpus.commit.op_class_0::SimdFloatSqrt            0      0.00%     63.33% # Class of committed instruction
system.switch_cpus.commit.op_class_0::MemRead       183828     19.00%     82.33% # Class of committed instruction
system.switch_cpus.commit.op_class_0::MemWrite       147709     15.27%     97.60% # Class of committed instruction
system.switch_cpus.commit.op_class_0::IprAccess        23224      2.40%    100.00% # Class of committed instruction
system.switch_cpus.commit.op_class_0::InstPrefetch            0      0.00%    100.00% # Class of committed instruction
system.switch_cpus.commit.op_class_0::total       967353                       # Class of committed instruction
system.switch_cpus.commit.bw_lim_events         41229                       # number cycles where commit BW limit reached
system.switch_cpus.rob.rob_reads              3127151                       # The number of ROB reads
system.switch_cpus.rob.rob_writes             2498675                       # The number of ROB writes
system.switch_cpus.timesIdled                    7199                       # Number of times that the entire CPU went into an idle state and unscheduled itself
system.switch_cpus.idleCycles                  323927                       # Total number of cycles that the CPU has spent unscheduled due to idling
system.switch_cpus.committedInsts              949923                       # Number of Instructions Simulated
system.switch_cpus.committedOps                949923                       # Number of Ops (including micro ops) Simulated
system.switch_cpus.cpi                       2.452139                       # CPI: Cycles Per Instruction
system.switch_cpus.cpi_total                 2.452139                       # CPI: Total CPI of All Threads
system.switch_cpus.ipc                       0.407807                       # IPC: Instructions Per Cycle
system.switch_cpus.ipc_total                 0.407807                       # IPC: Total IPC of All Threads
system.switch_cpus.int_regfile_reads          1461752                       # number of integer regfile reads
system.switch_cpus.int_regfile_writes          749642                       # number of integer regfile writes
system.switch_cpus.fp_regfile_reads              3076                       # number of floating regfile reads
system.switch_cpus.fp_regfile_writes             2772                       # number of floating regfile writes
system.switch_cpus.misc_regfile_reads           31601                       # number of misc regfile reads
system.switch_cpus.misc_regfile_writes          18540                       # number of misc regfile writes
system.tol2bus.trans_dist::ReadReq              24625                       # Transaction distribution
system.tol2bus.trans_dist::ReadResp             24626                       # Transaction distribution
system.tol2bus.trans_dist::WriteReq               133                       # Transaction distribution
system.tol2bus.trans_dist::WriteResp              133                       # Transaction distribution
system.tol2bus.trans_dist::Writeback            13044                       # Transaction distribution
system.tol2bus.trans_dist::UpgradeReq               3                       # Transaction distribution
system.tol2bus.trans_dist::UpgradeResp              3                       # Transaction distribution
system.tol2bus.trans_dist::ReadExReq             9386                       # Transaction distribution
system.tol2bus.trans_dist::ReadExResp            9386                       # Transaction distribution
system.tol2bus.pkt_count_system.cpu.icache.mem_side::system.l2.cpu_side        26481                       # Packet count per connected master and slave (bytes)
system.tol2bus.pkt_count_system.cpu.dcache.mem_side::system.l2.cpu_side        54852                       # Packet count per connected master and slave (bytes)
system.tol2bus.pkt_count::total                 81333                       # Packet count per connected master and slave (bytes)
system.tol2bus.pkt_size_system.cpu.icache.mem_side::system.l2.cpu_side       847232                       # Cumulative packet size per connected master and slave (bytes)
system.tol2bus.pkt_size_system.cpu.dcache.mem_side::system.l2.cpu_side      2145320                       # Cumulative packet size per connected master and slave (bytes)
system.tol2bus.pkt_size::total                2992552                       # Cumulative packet size per connected master and slave (bytes)
system.tol2bus.snoops                               6                       # Total snoops (count)
system.tol2bus.snoop_fanout::samples            47191                       # Request fanout histogram
system.tol2bus.snoop_fanout::mean                   1                       # Request fanout histogram
system.tol2bus.snoop_fanout::stdev                  0                       # Request fanout histogram
system.tol2bus.snoop_fanout::underflows             0      0.00%      0.00% # Request fanout histogram
system.tol2bus.snoop_fanout::0                      0      0.00%      0.00% # Request fanout histogram
system.tol2bus.snoop_fanout::1                  47191    100.00%    100.00% # Request fanout histogram
system.tol2bus.snoop_fanout::2                      0      0.00%    100.00% # Request fanout histogram
system.tol2bus.snoop_fanout::overflows              0      0.00%    100.00% # Request fanout histogram
system.tol2bus.snoop_fanout::min_value              1                       # Request fanout histogram
system.tol2bus.snoop_fanout::max_value              1                       # Request fanout histogram
system.tol2bus.snoop_fanout::total              47191                       # Request fanout histogram
system.tol2bus.reqLayer0.occupancy           36706000                       # Layer occupancy (ticks)
system.tol2bus.reqLayer0.utilization              3.2                       # Layer utilization (%)
system.tol2bus.respLayer0.occupancy          20487229                       # Layer occupancy (ticks)
system.tol2bus.respLayer0.utilization             1.8                       # Layer utilization (%)
system.tol2bus.respLayer1.occupancy          32609501                       # Layer occupancy (ticks)
system.tol2bus.respLayer1.utilization             2.8                       # Layer utilization (%)
system.tsunami.ethernet.descDMAReads                0                       # Number of descriptors the device read w/ DMA
system.tsunami.ethernet.descDMAWrites               0                       # Number of descriptors the device wrote w/ DMA
system.tsunami.ethernet.descDmaReadBytes            0                       # number of descriptor bytes read w/ DMA
system.tsunami.ethernet.descDmaWriteBytes            0                       # number of descriptor bytes write w/ DMA
system.tsunami.ethernet.postedSwi                   0                       # number of software interrupts posted to CPU
system.tsunami.ethernet.coalescedSwi              nan                       # average number of Swi's coalesced into each post
system.tsunami.ethernet.totalSwi                    0                       # total number of Swi written to ISR
system.tsunami.ethernet.postedRxIdle                0                       # number of rxIdle interrupts posted to CPU
system.tsunami.ethernet.coalescedRxIdle           nan                       # average number of RxIdle's coalesced into each post
system.tsunami.ethernet.totalRxIdle                 0                       # total number of RxIdle written to ISR
system.tsunami.ethernet.postedRxOk                  0                       # number of RxOk interrupts posted to CPU
system.tsunami.ethernet.coalescedRxOk             nan                       # average number of RxOk's coalesced into each post
system.tsunami.ethernet.totalRxOk                   0                       # total number of RxOk written to ISR
system.tsunami.ethernet.postedRxDesc                0                       # number of RxDesc interrupts posted to CPU
system.tsunami.ethernet.coalescedRxDesc           nan                       # average number of RxDesc's coalesced into each post
system.tsunami.ethernet.totalRxDesc                 0                       # total number of RxDesc written to ISR
system.tsunami.ethernet.postedTxOk                  0                       # number of TxOk interrupts posted to CPU
system.tsunami.ethernet.coalescedTxOk             nan                       # average number of TxOk's coalesced into each post
system.tsunami.ethernet.totalTxOk                   0                       # total number of TxOk written to ISR
system.tsunami.ethernet.postedTxIdle                0                       # number of TxIdle interrupts posted to CPU
system.tsunami.ethernet.coalescedTxIdle           nan                       # average number of TxIdle's coalesced into each post
system.tsunami.ethernet.totalTxIdle                 0                       # total number of TxIdle written to ISR
system.tsunami.ethernet.postedTxDesc                0                       # number of TxDesc interrupts posted to CPU
system.tsunami.ethernet.coalescedTxDesc           nan                       # average number of TxDesc's coalesced into each post
system.tsunami.ethernet.totalTxDesc                 0                       # total number of TxDesc written to ISR
system.tsunami.ethernet.postedRxOrn                 0                       # number of RxOrn posted to CPU
system.tsunami.ethernet.coalescedRxOrn            nan                       # average number of RxOrn's coalesced into each post
system.tsunami.ethernet.totalRxOrn                  0                       # total number of RxOrn written to ISR
system.tsunami.ethernet.coalescedTotal            nan                       # average number of interrupts coalesced into each post
system.tsunami.ethernet.postedInterrupts            0                       # number of posts to CPU
system.tsunami.ethernet.droppedPackets              0                       # number of packets dropped
system.switch_cpus.kern.inst.arm                    0                       # number of arm instructions executed
system.switch_cpus.kern.inst.quiesce                0                       # number of quiesce instructions executed
system.switch_cpus.kern.inst.hwrei                  0                       # number of hwrei instructions executed
system.switch_cpus.kern.mode_switch::kernel            0                       # number of protection mode switches
system.switch_cpus.kern.mode_switch::user            0                       # number of protection mode switches
system.switch_cpus.kern.mode_switch::idle            0                       # number of protection mode switches
system.switch_cpus.kern.mode_good::kernel            0                      
system.switch_cpus.kern.mode_good::user             0                      
system.switch_cpus.kern.mode_good::idle             0                      
system.switch_cpus.kern.mode_switch_good::kernel          nan                       # fraction of useful protection mode switches
system.switch_cpus.kern.mode_switch_good::user          nan                       # fraction of useful protection mode switches
system.switch_cpus.kern.mode_switch_good::idle          nan                       # fraction of useful protection mode switches
system.switch_cpus.kern.mode_switch_good::total          nan                       # fraction of useful protection mode switches
system.switch_cpus.kern.mode_ticks::kernel            0                       # number of ticks spent at the given mode
system.switch_cpus.kern.mode_ticks::user            0                       # number of ticks spent at the given mode
system.switch_cpus.kern.mode_ticks::idle            0                       # number of ticks spent at the given mode
system.switch_cpus.kern.swap_context                0                       # number of times the context was actually changed

---------- End Simulation Statistics   ----------
