
---------- Begin Simulation Statistics ----------
sim_seconds                                  0.001248                       # Number of seconds simulated
sim_ticks                                  1248265000                       # Number of ticks simulated
final_tick                               2255688164000                       # Number of ticks from beginning of simulation (restored from checkpoints and never reset)
sim_freq                                 1000000000000                       # Frequency of simulated ticks
host_inst_rate                               29662861                       # Simulator instruction rate (inst/s)
host_op_rate                                 29662794                       # Simulator op (including micro ops) rate (op/s)
host_tick_rate                              377889958                       # Simulator tick rate (ticks/s)
host_mem_usage                                 729104                       # Number of bytes of host memory used
host_seconds                                     3.30                       # Real time elapsed on the host
sim_insts                                    97983428                       # Number of instructions simulated
sim_ops                                      97983428                       # Number of ops (including micro ops) simulated
system.voltage_domain.voltage                       1                       # Voltage in Volts
system.clk_domain.clock                          1000                       # Clock period in ticks
system.mem_ctrls.bytes_read::switch_cpus.inst       449152                       # Number of bytes read from this memory
system.mem_ctrls.bytes_read::switch_cpus.data      1002368                       # Number of bytes read from this memory
system.mem_ctrls.bytes_read::total            1451520                       # Number of bytes read from this memory
system.mem_ctrls.bytes_inst_read::switch_cpus.inst       449152                       # Number of instructions bytes read from this memory
system.mem_ctrls.bytes_inst_read::total        449152                       # Number of instructions bytes read from this memory
system.mem_ctrls.bytes_written::writebacks       609216                       # Number of bytes written to this memory
system.mem_ctrls.bytes_written::total          609216                       # Number of bytes written to this memory
system.mem_ctrls.num_reads::switch_cpus.inst         7018                       # Number of read requests responded to by this memory
system.mem_ctrls.num_reads::switch_cpus.data        15662                       # Number of read requests responded to by this memory
system.mem_ctrls.num_reads::total               22680                       # Number of read requests responded to by this memory
system.mem_ctrls.num_writes::writebacks          9519                       # Number of write requests responded to by this memory
system.mem_ctrls.num_writes::total               9519                       # Number of write requests responded to by this memory
system.mem_ctrls.bw_read::switch_cpus.inst    359821032                       # Total read bandwidth from this memory (bytes/s)
system.mem_ctrls.bw_read::switch_cpus.data    803008976                       # Total read bandwidth from this memory (bytes/s)
system.mem_ctrls.bw_read::total            1162830008                       # Total read bandwidth from this memory (bytes/s)
system.mem_ctrls.bw_inst_read::switch_cpus.inst    359821032                       # Instruction read bandwidth from this memory (bytes/s)
system.mem_ctrls.bw_inst_read::total        359821032                       # Instruction read bandwidth from this memory (bytes/s)
system.mem_ctrls.bw_write::writebacks       488050214                       # Write bandwidth from this memory (bytes/s)
system.mem_ctrls.bw_write::total            488050214                       # Write bandwidth from this memory (bytes/s)
system.mem_ctrls.bw_total::writebacks       488050214                       # Total bandwidth to/from this memory (bytes/s)
system.mem_ctrls.bw_total::switch_cpus.inst    359821032                       # Total bandwidth to/from this memory (bytes/s)
system.mem_ctrls.bw_total::switch_cpus.data    803008976                       # Total bandwidth to/from this memory (bytes/s)
system.mem_ctrls.bw_total::total           1650880222                       # Total bandwidth to/from this memory (bytes/s)
system.mem_ctrls.readReqs                       22680                       # Number of read requests accepted
system.mem_ctrls.writeReqs                       9519                       # Number of write requests accepted
system.mem_ctrls.readBursts                     22680                       # Number of DRAM read bursts, including those serviced by the write queue
system.mem_ctrls.writeBursts                     9519                       # Number of DRAM write bursts, including those merged in the write queue
system.mem_ctrls.bytesReadDRAM                1447872                       # Total number of bytes read from DRAM
system.mem_ctrls.bytesReadWrQ                    3648                       # Total number of bytes read from write queue
system.mem_ctrls.bytesWritten                  607680                       # Total number of bytes written to DRAM
system.mem_ctrls.bytesReadSys                 1451520                       # Total read bytes from the system interface side
system.mem_ctrls.bytesWrittenSys               609216                       # Total written bytes from the system interface side
system.mem_ctrls.servicedByWrQ                     57                       # Number of DRAM read bursts serviced by the write queue
system.mem_ctrls.mergedWrBursts                     2                       # Number of DRAM write bursts merged with an existing one
system.mem_ctrls.neitherReadNorWriteReqs           10                       # Number of requests that are neither read nor write
system.mem_ctrls.perBankRdBursts::0              1489                       # Per bank write bursts
system.mem_ctrls.perBankRdBursts::1              1080                       # Per bank write bursts
system.mem_ctrls.perBankRdBursts::2              1601                       # Per bank write bursts
system.mem_ctrls.perBankRdBursts::3              1454                       # Per bank write bursts
system.mem_ctrls.perBankRdBursts::4              1588                       # Per bank write bursts
system.mem_ctrls.perBankRdBursts::5              1161                       # Per bank write bursts
system.mem_ctrls.perBankRdBursts::6              1522                       # Per bank write bursts
system.mem_ctrls.perBankRdBursts::7              1149                       # Per bank write bursts
system.mem_ctrls.perBankRdBursts::8              1397                       # Per bank write bursts
system.mem_ctrls.perBankRdBursts::9              1461                       # Per bank write bursts
system.mem_ctrls.perBankRdBursts::10             1381                       # Per bank write bursts
system.mem_ctrls.perBankRdBursts::11             1674                       # Per bank write bursts
system.mem_ctrls.perBankRdBursts::12             1286                       # Per bank write bursts
system.mem_ctrls.perBankRdBursts::13             2064                       # Per bank write bursts
system.mem_ctrls.perBankRdBursts::14             1326                       # Per bank write bursts
system.mem_ctrls.perBankRdBursts::15              990                       # Per bank write bursts
system.mem_ctrls.perBankWrBursts::0               551                       # Per bank write bursts
system.mem_ctrls.perBankWrBursts::1               587                       # Per bank write bursts
system.mem_ctrls.perBankWrBursts::2               884                       # Per bank write bursts
system.mem_ctrls.perBankWrBursts::3              1024                       # Per bank write bursts
system.mem_ctrls.perBankWrBursts::4               919                       # Per bank write bursts
system.mem_ctrls.perBankWrBursts::5               645                       # Per bank write bursts
system.mem_ctrls.perBankWrBursts::6               795                       # Per bank write bursts
system.mem_ctrls.perBankWrBursts::7               433                       # Per bank write bursts
system.mem_ctrls.perBankWrBursts::8               407                       # Per bank write bursts
system.mem_ctrls.perBankWrBursts::9               690                       # Per bank write bursts
system.mem_ctrls.perBankWrBursts::10              298                       # Per bank write bursts
system.mem_ctrls.perBankWrBursts::11              424                       # Per bank write bursts
system.mem_ctrls.perBankWrBursts::12              272                       # Per bank write bursts
system.mem_ctrls.perBankWrBursts::13              520                       # Per bank write bursts
system.mem_ctrls.perBankWrBursts::14              540                       # Per bank write bursts
system.mem_ctrls.perBankWrBursts::15              506                       # Per bank write bursts
system.mem_ctrls.numRdRetry                         0                       # Number of times read queue was full causing retry
system.mem_ctrls.numWrRetry                         0                       # Number of times write queue was full causing retry
system.mem_ctrls.totGap                    1248233000                       # Total gap between requests
system.mem_ctrls.readPktSize::0                     0                       # Read request sizes (log2)
system.mem_ctrls.readPktSize::1                     0                       # Read request sizes (log2)
system.mem_ctrls.readPktSize::2                     0                       # Read request sizes (log2)
system.mem_ctrls.readPktSize::3                     0                       # Read request sizes (log2)
system.mem_ctrls.readPktSize::4                     0                       # Read request sizes (log2)
system.mem_ctrls.readPktSize::5                     0                       # Read request sizes (log2)
system.mem_ctrls.readPktSize::6                 22680                       # Read request sizes (log2)
system.mem_ctrls.writePktSize::0                    0                       # Write request sizes (log2)
system.mem_ctrls.writePktSize::1                    0                       # Write request sizes (log2)
system.mem_ctrls.writePktSize::2                    0                       # Write request sizes (log2)
system.mem_ctrls.writePktSize::3                    0                       # Write request sizes (log2)
system.mem_ctrls.writePktSize::4                    0                       # Write request sizes (log2)
system.mem_ctrls.writePktSize::5                    0                       # Write request sizes (log2)
system.mem_ctrls.writePktSize::6                 9519                       # Write request sizes (log2)
system.mem_ctrls.rdQLenPdf::0                   11703                       # What read queue length does an incoming req see
system.mem_ctrls.rdQLenPdf::1                    6028                       # What read queue length does an incoming req see
system.mem_ctrls.rdQLenPdf::2                    3205                       # What read queue length does an incoming req see
system.mem_ctrls.rdQLenPdf::3                    1633                       # What read queue length does an incoming req see
system.mem_ctrls.rdQLenPdf::4                      49                       # What read queue length does an incoming req see
system.mem_ctrls.rdQLenPdf::5                       5                       # What read queue length does an incoming req see
system.mem_ctrls.rdQLenPdf::6                       0                       # What read queue length does an incoming req see
system.mem_ctrls.rdQLenPdf::7                       0                       # What read queue length does an incoming req see
system.mem_ctrls.rdQLenPdf::8                       0                       # What read queue length does an incoming req see
system.mem_ctrls.rdQLenPdf::9                       0                       # What read queue length does an incoming req see
system.mem_ctrls.rdQLenPdf::10                      0                       # What read queue length does an incoming req see
system.mem_ctrls.rdQLenPdf::11                      0                       # What read queue length does an incoming req see
system.mem_ctrls.rdQLenPdf::12                      0                       # What read queue length does an incoming req see
system.mem_ctrls.rdQLenPdf::13                      0                       # What read queue length does an incoming req see
system.mem_ctrls.rdQLenPdf::14                      0                       # What read queue length does an incoming req see
system.mem_ctrls.rdQLenPdf::15                      0                       # What read queue length does an incoming req see
system.mem_ctrls.rdQLenPdf::16                      0                       # What read queue length does an incoming req see
system.mem_ctrls.rdQLenPdf::17                      0                       # What read queue length does an incoming req see
system.mem_ctrls.rdQLenPdf::18                      0                       # What read queue length does an incoming req see
system.mem_ctrls.rdQLenPdf::19                      0                       # What read queue length does an incoming req see
system.mem_ctrls.rdQLenPdf::20                      0                       # What read queue length does an incoming req see
system.mem_ctrls.rdQLenPdf::21                      0                       # What read queue length does an incoming req see
system.mem_ctrls.rdQLenPdf::22                      0                       # What read queue length does an incoming req see
system.mem_ctrls.rdQLenPdf::23                      0                       # What read queue length does an incoming req see
system.mem_ctrls.rdQLenPdf::24                      0                       # What read queue length does an incoming req see
system.mem_ctrls.rdQLenPdf::25                      0                       # What read queue length does an incoming req see
system.mem_ctrls.rdQLenPdf::26                      0                       # What read queue length does an incoming req see
system.mem_ctrls.rdQLenPdf::27                      0                       # What read queue length does an incoming req see
system.mem_ctrls.rdQLenPdf::28                      0                       # What read queue length does an incoming req see
system.mem_ctrls.rdQLenPdf::29                      0                       # What read queue length does an incoming req see
system.mem_ctrls.rdQLenPdf::30                      0                       # What read queue length does an incoming req see
system.mem_ctrls.rdQLenPdf::31                      0                       # What read queue length does an incoming req see
system.mem_ctrls.wrQLenPdf::0                       1                       # What write queue length does an incoming req see
system.mem_ctrls.wrQLenPdf::1                       1                       # What write queue length does an incoming req see
system.mem_ctrls.wrQLenPdf::2                       1                       # What write queue length does an incoming req see
system.mem_ctrls.wrQLenPdf::3                       1                       # What write queue length does an incoming req see
system.mem_ctrls.wrQLenPdf::4                       1                       # What write queue length does an incoming req see
system.mem_ctrls.wrQLenPdf::5                       1                       # What write queue length does an incoming req see
system.mem_ctrls.wrQLenPdf::6                       1                       # What write queue length does an incoming req see
system.mem_ctrls.wrQLenPdf::7                       1                       # What write queue length does an incoming req see
system.mem_ctrls.wrQLenPdf::8                       1                       # What write queue length does an incoming req see
system.mem_ctrls.wrQLenPdf::9                       1                       # What write queue length does an incoming req see
system.mem_ctrls.wrQLenPdf::10                      1                       # What write queue length does an incoming req see
system.mem_ctrls.wrQLenPdf::11                      1                       # What write queue length does an incoming req see
system.mem_ctrls.wrQLenPdf::12                      1                       # What write queue length does an incoming req see
system.mem_ctrls.wrQLenPdf::13                      1                       # What write queue length does an incoming req see
system.mem_ctrls.wrQLenPdf::14                      1                       # What write queue length does an incoming req see
system.mem_ctrls.wrQLenPdf::15                     34                       # What write queue length does an incoming req see
system.mem_ctrls.wrQLenPdf::16                     39                       # What write queue length does an incoming req see
system.mem_ctrls.wrQLenPdf::17                    289                       # What write queue length does an incoming req see
system.mem_ctrls.wrQLenPdf::18                    428                       # What write queue length does an incoming req see
system.mem_ctrls.wrQLenPdf::19                    527                       # What write queue length does an incoming req see
system.mem_ctrls.wrQLenPdf::20                    606                       # What write queue length does an incoming req see
system.mem_ctrls.wrQLenPdf::21                    622                       # What write queue length does an incoming req see
system.mem_ctrls.wrQLenPdf::22                    607                       # What write queue length does an incoming req see
system.mem_ctrls.wrQLenPdf::23                    614                       # What write queue length does an incoming req see
system.mem_ctrls.wrQLenPdf::24                    618                       # What write queue length does an incoming req see
system.mem_ctrls.wrQLenPdf::25                    630                       # What write queue length does an incoming req see
system.mem_ctrls.wrQLenPdf::26                    687                       # What write queue length does an incoming req see
system.mem_ctrls.wrQLenPdf::27                    630                       # What write queue length does an incoming req see
system.mem_ctrls.wrQLenPdf::28                    645                       # What write queue length does an incoming req see
system.mem_ctrls.wrQLenPdf::29                    696                       # What write queue length does an incoming req see
system.mem_ctrls.wrQLenPdf::30                    634                       # What write queue length does an incoming req see
system.mem_ctrls.wrQLenPdf::31                    604                       # What write queue length does an incoming req see
system.mem_ctrls.wrQLenPdf::32                    592                       # What write queue length does an incoming req see
system.mem_ctrls.wrQLenPdf::33                      0                       # What write queue length does an incoming req see
system.mem_ctrls.wrQLenPdf::34                      0                       # What write queue length does an incoming req see
system.mem_ctrls.wrQLenPdf::35                      0                       # What write queue length does an incoming req see
system.mem_ctrls.wrQLenPdf::36                      0                       # What write queue length does an incoming req see
system.mem_ctrls.wrQLenPdf::37                      0                       # What write queue length does an incoming req see
system.mem_ctrls.wrQLenPdf::38                      0                       # What write queue length does an incoming req see
system.mem_ctrls.wrQLenPdf::39                      0                       # What write queue length does an incoming req see
system.mem_ctrls.wrQLenPdf::40                      0                       # What write queue length does an incoming req see
system.mem_ctrls.wrQLenPdf::41                      0                       # What write queue length does an incoming req see
system.mem_ctrls.wrQLenPdf::42                      0                       # What write queue length does an incoming req see
system.mem_ctrls.wrQLenPdf::43                      0                       # What write queue length does an incoming req see
system.mem_ctrls.wrQLenPdf::44                      0                       # What write queue length does an incoming req see
system.mem_ctrls.wrQLenPdf::45                      0                       # What write queue length does an incoming req see
system.mem_ctrls.wrQLenPdf::46                      0                       # What write queue length does an incoming req see
system.mem_ctrls.wrQLenPdf::47                      0                       # What write queue length does an incoming req see
system.mem_ctrls.wrQLenPdf::48                      0                       # What write queue length does an incoming req see
system.mem_ctrls.wrQLenPdf::49                      0                       # What write queue length does an incoming req see
system.mem_ctrls.wrQLenPdf::50                      0                       # What write queue length does an incoming req see
system.mem_ctrls.wrQLenPdf::51                      0                       # What write queue length does an incoming req see
system.mem_ctrls.wrQLenPdf::52                      0                       # What write queue length does an incoming req see
system.mem_ctrls.wrQLenPdf::53                      0                       # What write queue length does an incoming req see
system.mem_ctrls.wrQLenPdf::54                      0                       # What write queue length does an incoming req see
system.mem_ctrls.wrQLenPdf::55                      0                       # What write queue length does an incoming req see
system.mem_ctrls.wrQLenPdf::56                      0                       # What write queue length does an incoming req see
system.mem_ctrls.wrQLenPdf::57                      0                       # What write queue length does an incoming req see
system.mem_ctrls.wrQLenPdf::58                      0                       # What write queue length does an incoming req see
system.mem_ctrls.wrQLenPdf::59                      0                       # What write queue length does an incoming req see
system.mem_ctrls.wrQLenPdf::60                      0                       # What write queue length does an incoming req see
system.mem_ctrls.wrQLenPdf::61                      0                       # What write queue length does an incoming req see
system.mem_ctrls.wrQLenPdf::62                      0                       # What write queue length does an incoming req see
system.mem_ctrls.wrQLenPdf::63                      0                       # What write queue length does an incoming req see
system.mem_ctrls.bytesPerActivate::samples         7949                       # Bytes accessed per row activation
system.mem_ctrls.bytesPerActivate::mean    258.342936                       # Bytes accessed per row activation
system.mem_ctrls.bytesPerActivate::gmean   150.225374                       # Bytes accessed per row activation
system.mem_ctrls.bytesPerActivate::stdev   306.824353                       # Bytes accessed per row activation
system.mem_ctrls.bytesPerActivate::0-127         3625     45.60%     45.60% # Bytes accessed per row activation
system.mem_ctrls.bytesPerActivate::128-255         1932     24.30%     69.91% # Bytes accessed per row activation
system.mem_ctrls.bytesPerActivate::256-383          706      8.88%     78.79% # Bytes accessed per row activation
system.mem_ctrls.bytesPerActivate::384-511          319      4.01%     82.80% # Bytes accessed per row activation
system.mem_ctrls.bytesPerActivate::512-639          226      2.84%     85.65% # Bytes accessed per row activation
system.mem_ctrls.bytesPerActivate::640-767          142      1.79%     87.43% # Bytes accessed per row activation
system.mem_ctrls.bytesPerActivate::768-895          126      1.59%     89.02% # Bytes accessed per row activation
system.mem_ctrls.bytesPerActivate::896-1023           98      1.23%     90.25% # Bytes accessed per row activation
system.mem_ctrls.bytesPerActivate::1024-1151          775      9.75%    100.00% # Bytes accessed per row activation
system.mem_ctrls.bytesPerActivate::total         7949                       # Bytes accessed per row activation
system.mem_ctrls.rdPerTurnAround::samples          588                       # Reads before turning the bus around for writes
system.mem_ctrls.rdPerTurnAround::mean      38.464286                       # Reads before turning the bus around for writes
system.mem_ctrls.rdPerTurnAround::gmean     31.581579                       # Reads before turning the bus around for writes
system.mem_ctrls.rdPerTurnAround::stdev     27.341872                       # Reads before turning the bus around for writes
system.mem_ctrls.rdPerTurnAround::8-15             36      6.12%      6.12% # Reads before turning the bus around for writes
system.mem_ctrls.rdPerTurnAround::16-23           186     31.63%     37.76% # Reads before turning the bus around for writes
system.mem_ctrls.rdPerTurnAround::24-31            79     13.44%     51.19% # Reads before turning the bus around for writes
system.mem_ctrls.rdPerTurnAround::32-39            69     11.73%     62.93% # Reads before turning the bus around for writes
system.mem_ctrls.rdPerTurnAround::40-47            60     10.20%     73.13% # Reads before turning the bus around for writes
system.mem_ctrls.rdPerTurnAround::48-55            49      8.33%     81.46% # Reads before turning the bus around for writes
system.mem_ctrls.rdPerTurnAround::56-63            27      4.59%     86.05% # Reads before turning the bus around for writes
system.mem_ctrls.rdPerTurnAround::64-71            22      3.74%     89.80% # Reads before turning the bus around for writes
system.mem_ctrls.rdPerTurnAround::72-79            18      3.06%     92.86% # Reads before turning the bus around for writes
system.mem_ctrls.rdPerTurnAround::80-87             5      0.85%     93.71% # Reads before turning the bus around for writes
system.mem_ctrls.rdPerTurnAround::88-95            10      1.70%     95.41% # Reads before turning the bus around for writes
system.mem_ctrls.rdPerTurnAround::96-103            3      0.51%     95.92% # Reads before turning the bus around for writes
system.mem_ctrls.rdPerTurnAround::104-111            8      1.36%     97.28% # Reads before turning the bus around for writes
system.mem_ctrls.rdPerTurnAround::112-119            4      0.68%     97.96% # Reads before turning the bus around for writes
system.mem_ctrls.rdPerTurnAround::120-127            5      0.85%     98.81% # Reads before turning the bus around for writes
system.mem_ctrls.rdPerTurnAround::128-135            1      0.17%     98.98% # Reads before turning the bus around for writes
system.mem_ctrls.rdPerTurnAround::136-143            3      0.51%     99.49% # Reads before turning the bus around for writes
system.mem_ctrls.rdPerTurnAround::168-175            1      0.17%     99.66% # Reads before turning the bus around for writes
system.mem_ctrls.rdPerTurnAround::184-191            1      0.17%     99.83% # Reads before turning the bus around for writes
system.mem_ctrls.rdPerTurnAround::232-239            1      0.17%    100.00% # Reads before turning the bus around for writes
system.mem_ctrls.rdPerTurnAround::total           588                       # Reads before turning the bus around for writes
system.mem_ctrls.wrPerTurnAround::samples          588                       # Writes before turning the bus around for reads
system.mem_ctrls.wrPerTurnAround::mean      16.147959                       # Writes before turning the bus around for reads
system.mem_ctrls.wrPerTurnAround::gmean     16.139045                       # Writes before turning the bus around for reads
system.mem_ctrls.wrPerTurnAround::stdev      0.560067                       # Writes before turning the bus around for reads
system.mem_ctrls.wrPerTurnAround::16              545     92.69%     92.69% # Writes before turning the bus around for reads
system.mem_ctrls.wrPerTurnAround::17               10      1.70%     94.39% # Writes before turning the bus around for reads
system.mem_ctrls.wrPerTurnAround::18               22      3.74%     98.13% # Writes before turning the bus around for reads
system.mem_ctrls.wrPerTurnAround::19               11      1.87%    100.00% # Writes before turning the bus around for reads
system.mem_ctrls.wrPerTurnAround::total           588                       # Writes before turning the bus around for reads
system.mem_ctrls.totQLat                    410834500                       # Total ticks spent queuing
system.mem_ctrls.totMemAccLat               835015750                       # Total ticks spent from burst creation until serviced by the DRAM
system.mem_ctrls.totBusLat                  113115000                       # Total ticks spent in databus transfers
system.mem_ctrls.avgQLat                     18160.04                       # Average queueing delay per DRAM burst
system.mem_ctrls.avgBusLat                    5000.00                       # Average bus latency per DRAM burst
system.mem_ctrls.avgMemAccLat                36910.04                       # Average memory access latency per DRAM burst
system.mem_ctrls.avgRdBW                      1159.91                       # Average DRAM read bandwidth in MiByte/s
system.mem_ctrls.avgWrBW                       486.82                       # Average achieved write bandwidth in MiByte/s
system.mem_ctrls.avgRdBWSys                   1162.83                       # Average system read bandwidth in MiByte/s
system.mem_ctrls.avgWrBWSys                    488.05                       # Average system write bandwidth in MiByte/s
system.mem_ctrls.peakBW                      12800.00                       # Theoretical peak bandwidth in MiByte/s
system.mem_ctrls.busUtil                        12.87                       # Data bus utilization in percentage
system.mem_ctrls.busUtilRead                     9.06                       # Data bus utilization in percentage for reads
system.mem_ctrls.busUtilWrite                    3.80                       # Data bus utilization in percentage for writes
system.mem_ctrls.avgRdQLen                       1.75                       # Average read queue length when enqueuing
system.mem_ctrls.avgWrQLen                      25.68                       # Average write queue length when enqueuing
system.mem_ctrls.readRowHits                    17117                       # Number of row buffer hits during reads
system.mem_ctrls.writeRowHits                    7043                       # Number of row buffer hits during writes
system.mem_ctrls.readRowHitRate                 75.66                       # Row buffer hit rate for reads
system.mem_ctrls.writeRowHitRate                74.00                       # Row buffer hit rate for writes
system.mem_ctrls.avgGap                      38766.20                       # Average gap between requests
system.mem_ctrls.pageHitRate                    75.17                       # Row buffer hit rate, read and write combined
system.mem_ctrls_0.actEnergy                 29907360                       # Energy for activate commands per rank (pJ)
system.mem_ctrls_0.preEnergy                 16318500                       # Energy for precharge commands per rank (pJ)
system.mem_ctrls_0.readEnergy                86010600                       # Energy for read commands per rank (pJ)
system.mem_ctrls_0.writeEnergy               37720080                       # Energy for write commands per rank (pJ)
system.mem_ctrls_0.refreshEnergy             81369600                       # Energy for refresh commands per rank (pJ)
system.mem_ctrls_0.actBackEnergy            812801475                       # Energy for active background per rank (pJ)
system.mem_ctrls_0.preBackEnergy             34686000                       # Energy for precharge background per rank (pJ)
system.mem_ctrls_0.totalEnergy             1098813615                       # Total energy per rank (pJ)
system.mem_ctrls_0.averagePower            881.790615                       # Core power per rank (mW)
system.mem_ctrls_0.memoryStateTime::IDLE     52780500                       # Time in different power states
system.mem_ctrls_0.memoryStateTime::REF      41600000                       # Time in different power states
system.mem_ctrls_0.memoryStateTime::PRE_PDN            0                       # Time in different power states
system.mem_ctrls_0.memoryStateTime::ACT    1151750500                       # Time in different power states
system.mem_ctrls_0.memoryStateTime::ACT_PDN            0                       # Time in different power states
system.mem_ctrls_1.actEnergy                 30141720                       # Energy for activate commands per rank (pJ)
system.mem_ctrls_1.preEnergy                 16446375                       # Energy for precharge commands per rank (pJ)
system.mem_ctrls_1.readEnergy                90168000                       # Energy for read commands per rank (pJ)
system.mem_ctrls_1.writeEnergy               23697360                       # Energy for write commands per rank (pJ)
system.mem_ctrls_1.refreshEnergy             81369600                       # Energy for refresh commands per rank (pJ)
system.mem_ctrls_1.actBackEnergy            829821960                       # Energy for active background per rank (pJ)
system.mem_ctrls_1.preBackEnergy             19724250                       # Energy for precharge background per rank (pJ)
system.mem_ctrls_1.totalEnergy             1091369265                       # Total energy per rank (pJ)
system.mem_ctrls_1.averagePower            875.853475                       # Core power per rank (mW)
system.mem_ctrls_1.memoryStateTime::IDLE     28140750                       # Time in different power states
system.mem_ctrls_1.memoryStateTime::REF      41600000                       # Time in different power states
system.mem_ctrls_1.memoryStateTime::PRE_PDN            0                       # Time in different power states
system.mem_ctrls_1.memoryStateTime::ACT    1176710750                       # Time in different power states
system.mem_ctrls_1.memoryStateTime::ACT_PDN            0                       # Time in different power states
system.cpu_voltage_domain.voltage                   1                       # Voltage in Volts
system.cpu_clk_domain.clock                       500                       # Clock period in ticks
system.cpu.dtb.fetch_hits                           0                       # ITB hits
system.cpu.dtb.fetch_misses                         0                       # ITB misses
system.cpu.dtb.fetch_acv                            0                       # ITB acv
system.cpu.dtb.fetch_accesses                       0                       # ITB accesses
system.cpu.dtb.read_hits                            0                       # DTB read hits
system.cpu.dtb.read_misses                          0                       # DTB read misses
system.cpu.dtb.read_acv                             0                       # DTB read access violations
system.cpu.dtb.read_accesses                        0                       # DTB read accesses
system.cpu.dtb.write_hits                           0                       # DTB write hits
system.cpu.dtb.write_misses                         0                       # DTB write misses
system.cpu.dtb.write_acv                            0                       # DTB write access violations
system.cpu.dtb.write_accesses                       0                       # DTB write accesses
system.cpu.dtb.data_hits                            0                       # DTB hits
system.cpu.dtb.data_misses                          0                       # DTB misses
system.cpu.dtb.data_acv                             0                       # DTB access violations
system.cpu.dtb.data_accesses                        0                       # DTB accesses
system.cpu.itb.fetch_hits                           0                       # ITB hits
system.cpu.itb.fetch_misses                         0                       # ITB misses
system.cpu.itb.fetch_acv                            0                       # ITB acv
system.cpu.itb.fetch_accesses                       0                       # ITB accesses
system.cpu.itb.read_hits                            0                       # DTB read hits
system.cpu.itb.read_misses                          0                       # DTB read misses
system.cpu.itb.read_acv                             0                       # DTB read access violations
system.cpu.itb.read_accesses                        0                       # DTB read accesses
system.cpu.itb.write_hits                           0                       # DTB write hits
system.cpu.itb.write_misses                         0                       # DTB write misses
system.cpu.itb.write_acv                            0                       # DTB write access violations
system.cpu.itb.write_accesses                       0                       # DTB write accesses
system.cpu.itb.data_hits                            0                       # DTB hits
system.cpu.itb.data_misses                          0                       # DTB misses
system.cpu.itb.data_acv                             0                       # DTB access violations
system.cpu.itb.data_accesses                        0                       # DTB accesses
system.cpu.numCycles                                0                       # number of cpu cycles simulated
system.cpu.numWorkItemsStarted                      0                       # number of work items this cpu started
system.cpu.numWorkItemsCompleted                    0                       # number of work items this cpu completed
system.cpu.committedInsts                           0                       # Number of instructions committed
system.cpu.committedOps                             0                       # Number of ops (including micro ops) committed
system.cpu.num_int_alu_accesses                     0                       # Number of integer alu accesses
system.cpu.num_fp_alu_accesses                      0                       # Number of float alu accesses
system.cpu.num_func_calls                           0                       # number of times a function call or return occured
system.cpu.num_conditional_control_insts            0                       # number of instructions that are conditional controls
system.cpu.num_int_insts                            0                       # number of integer instructions
system.cpu.num_fp_insts                             0                       # number of float instructions
system.cpu.num_int_register_reads                   0                       # number of times the integer registers were read
system.cpu.num_int_register_writes                  0                       # number of times the integer registers were written
system.cpu.num_fp_register_reads                    0                       # number of times the floating registers were read
system.cpu.num_fp_register_writes                   0                       # number of times the floating registers were written
system.cpu.num_mem_refs                             0                       # number of memory refs
system.cpu.num_load_insts                           0                       # Number of load instructions
system.cpu.num_store_insts                          0                       # Number of store instructions
system.cpu.num_idle_cycles                          0                       # Number of idle cycles
system.cpu.num_busy_cycles                          0                       # Number of busy cycles
system.cpu.not_idle_fraction                        1                       # Percentage of non-idle cycles
system.cpu.idle_fraction                            0                       # Percentage of idle cycles
system.cpu.op_class::No_OpClass                     0                       # Class of executed instruction
system.cpu.op_class::IntAlu                         0                       # Class of executed instruction
system.cpu.op_class::IntMult                        0                       # Class of executed instruction
system.cpu.op_class::IntDiv                         0                       # Class of executed instruction
system.cpu.op_class::FloatAdd                       0                       # Class of executed instruction
system.cpu.op_class::FloatCmp                       0                       # Class of executed instruction
system.cpu.op_class::FloatCvt                       0                       # Class of executed instruction
system.cpu.op_class::FloatMult                      0                       # Class of executed instruction
system.cpu.op_class::FloatDiv                       0                       # Class of executed instruction
system.cpu.op_class::FloatSqrt                      0                       # Class of executed instruction
system.cpu.op_class::SimdAdd                        0                       # Class of executed instruction
system.cpu.op_class::SimdAddAcc                     0                       # Class of executed instruction
system.cpu.op_class::SimdAlu                        0                       # Class of executed instruction
system.cpu.op_class::SimdCmp                        0                       # Class of executed instruction
system.cpu.op_class::SimdCvt                        0                       # Class of executed instruction
system.cpu.op_class::SimdMisc                       0                       # Class of executed instruction
system.cpu.op_class::SimdMult                       0                       # Class of executed instruction
system.cpu.op_class::SimdMultAcc                    0                       # Class of executed instruction
system.cpu.op_class::SimdShift                      0                       # Class of executed instruction
system.cpu.op_class::SimdShiftAcc                   0                       # Class of executed instruction
system.cpu.op_class::SimdSqrt                       0                       # Class of executed instruction
system.cpu.op_class::SimdFloatAdd                   0                       # Class of executed instruction
system.cpu.op_class::SimdFloatAlu                   0                       # Class of executed instruction
system.cpu.op_class::SimdFloatCmp                   0                       # Class of executed instruction
system.cpu.op_class::SimdFloatCvt                   0                       # Class of executed instruction
system.cpu.op_class::SimdFloatDiv                   0                       # Class of executed instruction
system.cpu.op_class::SimdFloatMisc                  0                       # Class of executed instruction
system.cpu.op_class::SimdFloatMult                  0                       # Class of executed instruction
system.cpu.op_class::SimdFloatMultAcc               0                       # Class of executed instruction
system.cpu.op_class::SimdFloatSqrt                  0                       # Class of executed instruction
system.cpu.op_class::MemRead                        0                       # Class of executed instruction
system.cpu.op_class::MemWrite                       0                       # Class of executed instruction
system.cpu.op_class::IprAccess                      0                       # Class of executed instruction
system.cpu.op_class::InstPrefetch                   0                       # Class of executed instruction
system.cpu.op_class::total                          0                       # Class of executed instruction
system.cpu.kern.inst.arm                            0                       # number of arm instructions executed
system.cpu.kern.inst.quiesce                        0                       # number of quiesce instructions executed
system.cpu.kern.inst.hwrei                       2781                       # number of hwrei instructions executed
system.cpu.kern.ipl_count::0                      635     49.15%     49.15% # number of times we switched to this ipl
system.cpu.kern.ipl_count::22                       1      0.08%     49.23% # number of times we switched to this ipl
system.cpu.kern.ipl_count::31                     656     50.77%    100.00% # number of times we switched to this ipl
system.cpu.kern.ipl_count::total                 1292                       # number of times we switched to this ipl
system.cpu.kern.ipl_good::0                       633     49.96%     49.96% # number of times we switched to this ipl from a different ipl
system.cpu.kern.ipl_good::22                        1      0.08%     50.04% # number of times we switched to this ipl from a different ipl
system.cpu.kern.ipl_good::31                      633     49.96%    100.00% # number of times we switched to this ipl from a different ipl
system.cpu.kern.ipl_good::total                  1267                       # number of times we switched to this ipl from a different ipl
system.cpu.kern.ipl_ticks::0               1136744000     91.22%     91.22% # number of cycles we spent at this ipl
system.cpu.kern.ipl_ticks::22                 1514000      0.12%     91.35% # number of cycles we spent at this ipl
system.cpu.kern.ipl_ticks::31               107849000      8.65%    100.00% # number of cycles we spent at this ipl
system.cpu.kern.ipl_ticks::total           1246107000                       # number of cycles we spent at this ipl
system.cpu.kern.ipl_used::0                  0.996850                       # fraction of swpipl calls that actually changed the ipl
system.cpu.kern.ipl_used::22                        1                       # fraction of swpipl calls that actually changed the ipl
system.cpu.kern.ipl_used::31                 0.964939                       # fraction of swpipl calls that actually changed the ipl
system.cpu.kern.ipl_used::total              0.980650                       # fraction of swpipl calls that actually changed the ipl
system.cpu.kern.syscall::2                          1      5.56%      5.56% # number of syscalls executed
system.cpu.kern.syscall::3                          2     11.11%     16.67% # number of syscalls executed
system.cpu.kern.syscall::6                          2     11.11%     27.78% # number of syscalls executed
system.cpu.kern.syscall::17                         1      5.56%     33.33% # number of syscalls executed
system.cpu.kern.syscall::19                         1      5.56%     38.89% # number of syscalls executed
system.cpu.kern.syscall::33                         1      5.56%     44.44% # number of syscalls executed
system.cpu.kern.syscall::45                         3     16.67%     61.11% # number of syscalls executed
system.cpu.kern.syscall::48                         1      5.56%     66.67% # number of syscalls executed
system.cpu.kern.syscall::59                         1      5.56%     72.22% # number of syscalls executed
system.cpu.kern.syscall::71                         4     22.22%     94.44% # number of syscalls executed
system.cpu.kern.syscall::74                         1      5.56%    100.00% # number of syscalls executed
system.cpu.kern.syscall::total                     18                       # number of syscalls executed
system.cpu.kern.callpal::swpctx                   118      8.10%      8.10% # number of callpals executed
system.cpu.kern.callpal::tbi                        6      0.41%      8.51% # number of callpals executed
system.cpu.kern.callpal::swpipl                  1107     75.98%     84.49% # number of callpals executed
system.cpu.kern.callpal::rdps                       3      0.21%     84.69% # number of callpals executed
system.cpu.kern.callpal::wrusp                      1      0.07%     84.76% # number of callpals executed
system.cpu.kern.callpal::rdusp                      1      0.07%     84.83% # number of callpals executed
system.cpu.kern.callpal::rti                      184     12.63%     97.46% # number of callpals executed
system.cpu.kern.callpal::callsys                   33      2.26%     99.73% # number of callpals executed
system.cpu.kern.callpal::imb                        4      0.27%    100.00% # number of callpals executed
system.cpu.kern.callpal::total                   1457                       # number of callpals executed
system.cpu.kern.mode_switch::kernel               302                       # number of protection mode switches
system.cpu.kern.mode_switch::user                 181                       # number of protection mode switches
system.cpu.kern.mode_switch::idle                   0                       # number of protection mode switches
system.cpu.kern.mode_good::kernel                 181                      
system.cpu.kern.mode_good::user                   181                      
system.cpu.kern.mode_good::idle                     0                      
system.cpu.kern.mode_switch_good::kernel     0.599338                       # fraction of useful protection mode switches
system.cpu.kern.mode_switch_good::user              1                       # fraction of useful protection mode switches
system.cpu.kern.mode_switch_good::idle            nan                       # fraction of useful protection mode switches
system.cpu.kern.mode_switch_good::total      0.749482                       # fraction of useful protection mode switches
system.cpu.kern.mode_ticks::kernel          875955000     70.30%     70.30% # number of ticks spent at the given mode
system.cpu.kern.mode_ticks::user            370145000     29.70%    100.00% # number of ticks spent at the given mode
system.cpu.kern.mode_ticks::idle                    0      0.00%    100.00% # number of ticks spent at the given mode
system.cpu.kern.swap_context                      118                       # number of times the context was actually changed
system.cpu.dcache.tags.replacements             18290                       # number of replacements
system.cpu.dcache.tags.tagsinuse                  512                       # Cycle average of tags in use
system.cpu.dcache.tags.total_refs              199943                       # Total number of references to valid blocks.
system.cpu.dcache.tags.sampled_refs             18290                       # Sample count of references to valid blocks.
system.cpu.dcache.tags.avg_refs             10.931821                       # Average number of references to valid blocks.
system.cpu.dcache.tags.warmup_cycle                 0                       # Cycle when the warmup percentage was hit.
system.cpu.dcache.tags.occ_blocks::cpu.data    23.841494                       # Average occupied blocks per requestor
system.cpu.dcache.tags.occ_blocks::switch_cpus.data   488.158506                       # Average occupied blocks per requestor
system.cpu.dcache.tags.occ_percent::cpu.data     0.046565                       # Average percentage of cache occupancy
system.cpu.dcache.tags.occ_percent::switch_cpus.data     0.953435                       # Average percentage of cache occupancy
system.cpu.dcache.tags.occ_percent::total            1                       # Average percentage of cache occupancy
system.cpu.dcache.tags.occ_task_id_blocks::1024          512                       # Occupied blocks per task id
system.cpu.dcache.tags.age_task_id_blocks_1024::0           87                       # Occupied blocks per task id
system.cpu.dcache.tags.age_task_id_blocks_1024::1          368                       # Occupied blocks per task id
system.cpu.dcache.tags.age_task_id_blocks_1024::2           57                       # Occupied blocks per task id
system.cpu.dcache.tags.occ_task_id_percent::1024            1                       # Percentage of cache occupancy per task id
system.cpu.dcache.tags.tag_accesses           1185362                       # Number of tag accesses
system.cpu.dcache.tags.data_accesses          1185362                       # Number of data accesses
system.cpu.dcache.ReadReq_hits::switch_cpus.data       133735                       # number of ReadReq hits
system.cpu.dcache.ReadReq_hits::total          133735                       # number of ReadReq hits
system.cpu.dcache.WriteReq_hits::switch_cpus.data        58658                       # number of WriteReq hits
system.cpu.dcache.WriteReq_hits::total          58658                       # number of WriteReq hits
system.cpu.dcache.LoadLockedReq_hits::switch_cpus.data         2230                       # number of LoadLockedReq hits
system.cpu.dcache.LoadLockedReq_hits::total         2230                       # number of LoadLockedReq hits
system.cpu.dcache.StoreCondReq_hits::switch_cpus.data         2375                       # number of StoreCondReq hits
system.cpu.dcache.StoreCondReq_hits::total         2375                       # number of StoreCondReq hits
system.cpu.dcache.demand_hits::switch_cpus.data       192393                       # number of demand (read+write) hits
system.cpu.dcache.demand_hits::total           192393                       # number of demand (read+write) hits
system.cpu.dcache.overall_hits::switch_cpus.data       192393                       # number of overall hits
system.cpu.dcache.overall_hits::total          192393                       # number of overall hits
system.cpu.dcache.ReadReq_misses::switch_cpus.data        26792                       # number of ReadReq misses
system.cpu.dcache.ReadReq_misses::total         26792                       # number of ReadReq misses
system.cpu.dcache.WriteReq_misses::switch_cpus.data        67573                       # number of WriteReq misses
system.cpu.dcache.WriteReq_misses::total        67573                       # number of WriteReq misses
system.cpu.dcache.LoadLockedReq_misses::switch_cpus.data          402                       # number of LoadLockedReq misses
system.cpu.dcache.LoadLockedReq_misses::total          402                       # number of LoadLockedReq misses
system.cpu.dcache.StoreCondReq_misses::switch_cpus.data            3                       # number of StoreCondReq misses
system.cpu.dcache.StoreCondReq_misses::total            3                       # number of StoreCondReq misses
system.cpu.dcache.demand_misses::switch_cpus.data        94365                       # number of demand (read+write) misses
system.cpu.dcache.demand_misses::total          94365                       # number of demand (read+write) misses
system.cpu.dcache.overall_misses::switch_cpus.data        94365                       # number of overall misses
system.cpu.dcache.overall_misses::total         94365                       # number of overall misses
system.cpu.dcache.ReadReq_miss_latency::switch_cpus.data   1650382749                       # number of ReadReq miss cycles
system.cpu.dcache.ReadReq_miss_latency::total   1650382749                       # number of ReadReq miss cycles
system.cpu.dcache.WriteReq_miss_latency::switch_cpus.data   5037372131                       # number of WriteReq miss cycles
system.cpu.dcache.WriteReq_miss_latency::total   5037372131                       # number of WriteReq miss cycles
system.cpu.dcache.LoadLockedReq_miss_latency::switch_cpus.data     29514250                       # number of LoadLockedReq miss cycles
system.cpu.dcache.LoadLockedReq_miss_latency::total     29514250                       # number of LoadLockedReq miss cycles
system.cpu.dcache.StoreCondReq_miss_latency::switch_cpus.data        59501                       # number of StoreCondReq miss cycles
system.cpu.dcache.StoreCondReq_miss_latency::total        59501                       # number of StoreCondReq miss cycles
system.cpu.dcache.demand_miss_latency::switch_cpus.data   6687754880                       # number of demand (read+write) miss cycles
system.cpu.dcache.demand_miss_latency::total   6687754880                       # number of demand (read+write) miss cycles
system.cpu.dcache.overall_miss_latency::switch_cpus.data   6687754880                       # number of overall miss cycles
system.cpu.dcache.overall_miss_latency::total   6687754880                       # number of overall miss cycles
system.cpu.dcache.ReadReq_accesses::switch_cpus.data       160527                       # number of ReadReq accesses(hits+misses)
system.cpu.dcache.ReadReq_accesses::total       160527                       # number of ReadReq accesses(hits+misses)
system.cpu.dcache.WriteReq_accesses::switch_cpus.data       126231                       # number of WriteReq accesses(hits+misses)
system.cpu.dcache.WriteReq_accesses::total       126231                       # number of WriteReq accesses(hits+misses)
system.cpu.dcache.LoadLockedReq_accesses::switch_cpus.data         2632                       # number of LoadLockedReq accesses(hits+misses)
system.cpu.dcache.LoadLockedReq_accesses::total         2632                       # number of LoadLockedReq accesses(hits+misses)
system.cpu.dcache.StoreCondReq_accesses::switch_cpus.data         2378                       # number of StoreCondReq accesses(hits+misses)
system.cpu.dcache.StoreCondReq_accesses::total         2378                       # number of StoreCondReq accesses(hits+misses)
system.cpu.dcache.demand_accesses::switch_cpus.data       286758                       # number of demand (read+write) accesses
system.cpu.dcache.demand_accesses::total       286758                       # number of demand (read+write) accesses
system.cpu.dcache.overall_accesses::switch_cpus.data       286758                       # number of overall (read+write) accesses
system.cpu.dcache.overall_accesses::total       286758                       # number of overall (read+write) accesses
system.cpu.dcache.ReadReq_miss_rate::switch_cpus.data     0.166900                       # miss rate for ReadReq accesses
system.cpu.dcache.ReadReq_miss_rate::total     0.166900                       # miss rate for ReadReq accesses
system.cpu.dcache.WriteReq_miss_rate::switch_cpus.data     0.535312                       # miss rate for WriteReq accesses
system.cpu.dcache.WriteReq_miss_rate::total     0.535312                       # miss rate for WriteReq accesses
system.cpu.dcache.LoadLockedReq_miss_rate::switch_cpus.data     0.152736                       # miss rate for LoadLockedReq accesses
system.cpu.dcache.LoadLockedReq_miss_rate::total     0.152736                       # miss rate for LoadLockedReq accesses
system.cpu.dcache.StoreCondReq_miss_rate::switch_cpus.data     0.001262                       # miss rate for StoreCondReq accesses
system.cpu.dcache.StoreCondReq_miss_rate::total     0.001262                       # miss rate for StoreCondReq accesses
system.cpu.dcache.demand_miss_rate::switch_cpus.data     0.329075                       # miss rate for demand accesses
system.cpu.dcache.demand_miss_rate::total     0.329075                       # miss rate for demand accesses
system.cpu.dcache.overall_miss_rate::switch_cpus.data     0.329075                       # miss rate for overall accesses
system.cpu.dcache.overall_miss_rate::total     0.329075                       # miss rate for overall accesses
system.cpu.dcache.ReadReq_avg_miss_latency::switch_cpus.data 61599.833868                       # average ReadReq miss latency
system.cpu.dcache.ReadReq_avg_miss_latency::total 61599.833868                       # average ReadReq miss latency
system.cpu.dcache.WriteReq_avg_miss_latency::switch_cpus.data 74547.113951                       # average WriteReq miss latency
system.cpu.dcache.WriteReq_avg_miss_latency::total 74547.113951                       # average WriteReq miss latency
system.cpu.dcache.LoadLockedReq_avg_miss_latency::switch_cpus.data 73418.532338                       # average LoadLockedReq miss latency
system.cpu.dcache.LoadLockedReq_avg_miss_latency::total 73418.532338                       # average LoadLockedReq miss latency
system.cpu.dcache.StoreCondReq_avg_miss_latency::switch_cpus.data 19833.666667                       # average StoreCondReq miss latency
system.cpu.dcache.StoreCondReq_avg_miss_latency::total 19833.666667                       # average StoreCondReq miss latency
system.cpu.dcache.demand_avg_miss_latency::switch_cpus.data 70871.137392                       # average overall miss latency
system.cpu.dcache.demand_avg_miss_latency::total 70871.137392                       # average overall miss latency
system.cpu.dcache.overall_avg_miss_latency::switch_cpus.data 70871.137392                       # average overall miss latency
system.cpu.dcache.overall_avg_miss_latency::total 70871.137392                       # average overall miss latency
system.cpu.dcache.blocked_cycles::no_mshrs       396187                       # number of cycles access was blocked
system.cpu.dcache.blocked_cycles::no_targets           70                       # number of cycles access was blocked
system.cpu.dcache.blocked::no_mshrs              7658                       # number of cycles access was blocked
system.cpu.dcache.blocked::no_targets               1                       # number of cycles access was blocked
system.cpu.dcache.avg_blocked_cycles::no_mshrs    51.735048                       # average number of cycles each access was blocked
system.cpu.dcache.avg_blocked_cycles::no_targets           70                       # average number of cycles each access was blocked
system.cpu.dcache.fast_writes                       0                       # number of fast writes performed
system.cpu.dcache.cache_copies                      0                       # number of cache copies performed
system.cpu.dcache.writebacks::writebacks        10991                       # number of writebacks
system.cpu.dcache.writebacks::total             10991                       # number of writebacks
system.cpu.dcache.ReadReq_mshr_hits::switch_cpus.data        17806                       # number of ReadReq MSHR hits
system.cpu.dcache.ReadReq_mshr_hits::total        17806                       # number of ReadReq MSHR hits
system.cpu.dcache.WriteReq_mshr_hits::switch_cpus.data        58479                       # number of WriteReq MSHR hits
system.cpu.dcache.WriteReq_mshr_hits::total        58479                       # number of WriteReq MSHR hits
system.cpu.dcache.LoadLockedReq_mshr_hits::switch_cpus.data          179                       # number of LoadLockedReq MSHR hits
system.cpu.dcache.LoadLockedReq_mshr_hits::total          179                       # number of LoadLockedReq MSHR hits
system.cpu.dcache.demand_mshr_hits::switch_cpus.data        76285                       # number of demand (read+write) MSHR hits
system.cpu.dcache.demand_mshr_hits::total        76285                       # number of demand (read+write) MSHR hits
system.cpu.dcache.overall_mshr_hits::switch_cpus.data        76285                       # number of overall MSHR hits
system.cpu.dcache.overall_mshr_hits::total        76285                       # number of overall MSHR hits
system.cpu.dcache.ReadReq_mshr_misses::switch_cpus.data         8986                       # number of ReadReq MSHR misses
system.cpu.dcache.ReadReq_mshr_misses::total         8986                       # number of ReadReq MSHR misses
system.cpu.dcache.WriteReq_mshr_misses::switch_cpus.data         9094                       # number of WriteReq MSHR misses
system.cpu.dcache.WriteReq_mshr_misses::total         9094                       # number of WriteReq MSHR misses
system.cpu.dcache.LoadLockedReq_mshr_misses::switch_cpus.data          223                       # number of LoadLockedReq MSHR misses
system.cpu.dcache.LoadLockedReq_mshr_misses::total          223                       # number of LoadLockedReq MSHR misses
system.cpu.dcache.StoreCondReq_mshr_misses::switch_cpus.data            3                       # number of StoreCondReq MSHR misses
system.cpu.dcache.StoreCondReq_mshr_misses::total            3                       # number of StoreCondReq MSHR misses
system.cpu.dcache.demand_mshr_misses::switch_cpus.data        18080                       # number of demand (read+write) MSHR misses
system.cpu.dcache.demand_mshr_misses::total        18080                       # number of demand (read+write) MSHR misses
system.cpu.dcache.overall_mshr_misses::switch_cpus.data        18080                       # number of overall MSHR misses
system.cpu.dcache.overall_mshr_misses::total        18080                       # number of overall MSHR misses
system.cpu.dcache.WriteReq_mshr_uncacheable::switch_cpus.data            1                       # number of WriteReq MSHR uncacheable
system.cpu.dcache.WriteReq_mshr_uncacheable::total            1                       # number of WriteReq MSHR uncacheable
system.cpu.dcache.overall_mshr_uncacheable_misses::switch_cpus.data            1                       # number of overall MSHR uncacheable misses
system.cpu.dcache.overall_mshr_uncacheable_misses::total            1                       # number of overall MSHR uncacheable misses
system.cpu.dcache.ReadReq_mshr_miss_latency::switch_cpus.data    647027002                       # number of ReadReq MSHR miss cycles
system.cpu.dcache.ReadReq_mshr_miss_latency::total    647027002                       # number of ReadReq MSHR miss cycles
system.cpu.dcache.WriteReq_mshr_miss_latency::switch_cpus.data    779669525                       # number of WriteReq MSHR miss cycles
system.cpu.dcache.WriteReq_mshr_miss_latency::total    779669525                       # number of WriteReq MSHR miss cycles
system.cpu.dcache.LoadLockedReq_mshr_miss_latency::switch_cpus.data     15959750                       # number of LoadLockedReq MSHR miss cycles
system.cpu.dcache.LoadLockedReq_mshr_miss_latency::total     15959750                       # number of LoadLockedReq MSHR miss cycles
system.cpu.dcache.StoreCondReq_mshr_miss_latency::switch_cpus.data        54999                       # number of StoreCondReq MSHR miss cycles
system.cpu.dcache.StoreCondReq_mshr_miss_latency::total        54999                       # number of StoreCondReq MSHR miss cycles
system.cpu.dcache.demand_mshr_miss_latency::switch_cpus.data   1426696527                       # number of demand (read+write) MSHR miss cycles
system.cpu.dcache.demand_mshr_miss_latency::total   1426696527                       # number of demand (read+write) MSHR miss cycles
system.cpu.dcache.overall_mshr_miss_latency::switch_cpus.data   1426696527                       # number of overall MSHR miss cycles
system.cpu.dcache.overall_mshr_miss_latency::total   1426696527                       # number of overall MSHR miss cycles
system.cpu.dcache.WriteReq_mshr_uncacheable_latency::switch_cpus.data       223500                       # number of WriteReq MSHR uncacheable cycles
system.cpu.dcache.WriteReq_mshr_uncacheable_latency::total       223500                       # number of WriteReq MSHR uncacheable cycles
system.cpu.dcache.overall_mshr_uncacheable_latency::switch_cpus.data       223500                       # number of overall MSHR uncacheable cycles
system.cpu.dcache.overall_mshr_uncacheable_latency::total       223500                       # number of overall MSHR uncacheable cycles
system.cpu.dcache.ReadReq_mshr_miss_rate::switch_cpus.data     0.055978                       # mshr miss rate for ReadReq accesses
system.cpu.dcache.ReadReq_mshr_miss_rate::total     0.055978                       # mshr miss rate for ReadReq accesses
system.cpu.dcache.WriteReq_mshr_miss_rate::switch_cpus.data     0.072043                       # mshr miss rate for WriteReq accesses
system.cpu.dcache.WriteReq_mshr_miss_rate::total     0.072043                       # mshr miss rate for WriteReq accesses
system.cpu.dcache.LoadLockedReq_mshr_miss_rate::switch_cpus.data     0.084726                       # mshr miss rate for LoadLockedReq accesses
system.cpu.dcache.LoadLockedReq_mshr_miss_rate::total     0.084726                       # mshr miss rate for LoadLockedReq accesses
system.cpu.dcache.StoreCondReq_mshr_miss_rate::switch_cpus.data     0.001262                       # mshr miss rate for StoreCondReq accesses
system.cpu.dcache.StoreCondReq_mshr_miss_rate::total     0.001262                       # mshr miss rate for StoreCondReq accesses
system.cpu.dcache.demand_mshr_miss_rate::switch_cpus.data     0.063050                       # mshr miss rate for demand accesses
system.cpu.dcache.demand_mshr_miss_rate::total     0.063050                       # mshr miss rate for demand accesses
system.cpu.dcache.overall_mshr_miss_rate::switch_cpus.data     0.063050                       # mshr miss rate for overall accesses
system.cpu.dcache.overall_mshr_miss_rate::total     0.063050                       # mshr miss rate for overall accesses
system.cpu.dcache.ReadReq_avg_mshr_miss_latency::switch_cpus.data 72003.895170                       # average ReadReq mshr miss latency
system.cpu.dcache.ReadReq_avg_mshr_miss_latency::total 72003.895170                       # average ReadReq mshr miss latency
system.cpu.dcache.WriteReq_avg_mshr_miss_latency::switch_cpus.data 85734.498021                       # average WriteReq mshr miss latency
system.cpu.dcache.WriteReq_avg_mshr_miss_latency::total 85734.498021                       # average WriteReq mshr miss latency
system.cpu.dcache.LoadLockedReq_avg_mshr_miss_latency::switch_cpus.data 71568.385650                       # average LoadLockedReq mshr miss latency
system.cpu.dcache.LoadLockedReq_avg_mshr_miss_latency::total 71568.385650                       # average LoadLockedReq mshr miss latency
system.cpu.dcache.StoreCondReq_avg_mshr_miss_latency::switch_cpus.data        18333                       # average StoreCondReq mshr miss latency
system.cpu.dcache.StoreCondReq_avg_mshr_miss_latency::total        18333                       # average StoreCondReq mshr miss latency
system.cpu.dcache.demand_avg_mshr_miss_latency::switch_cpus.data 78910.206139                       # average overall mshr miss latency
system.cpu.dcache.demand_avg_mshr_miss_latency::total 78910.206139                       # average overall mshr miss latency
system.cpu.dcache.overall_avg_mshr_miss_latency::switch_cpus.data 78910.206139                       # average overall mshr miss latency
system.cpu.dcache.overall_avg_mshr_miss_latency::total 78910.206139                       # average overall mshr miss latency
system.cpu.dcache.WriteReq_avg_mshr_uncacheable_latency::switch_cpus.data       223500                       # average WriteReq mshr uncacheable latency
system.cpu.dcache.WriteReq_avg_mshr_uncacheable_latency::total       223500                       # average WriteReq mshr uncacheable latency
system.cpu.dcache.overall_avg_mshr_uncacheable_latency::switch_cpus.data       223500                       # average overall mshr uncacheable latency
system.cpu.dcache.overall_avg_mshr_uncacheable_latency::total       223500                       # average overall mshr uncacheable latency
system.cpu.dcache.no_allocate_misses                0                       # Number of misses that were no-allocate
system.cpu.icache.tags.replacements             10215                       # number of replacements
system.cpu.icache.tags.tagsinuse           511.729353                       # Cycle average of tags in use
system.cpu.icache.tags.total_refs              362964                       # Total number of references to valid blocks.
system.cpu.icache.tags.sampled_refs             10215                       # Sample count of references to valid blocks.
system.cpu.icache.tags.avg_refs             35.532452                       # Average number of references to valid blocks.
system.cpu.icache.tags.warmup_cycle                 0                       # Cycle when the warmup percentage was hit.
system.cpu.icache.tags.occ_blocks::cpu.inst    21.111485                       # Average occupied blocks per requestor
system.cpu.icache.tags.occ_blocks::switch_cpus.inst   490.617868                       # Average occupied blocks per requestor
system.cpu.icache.tags.occ_percent::cpu.inst     0.041233                       # Average percentage of cache occupancy
system.cpu.icache.tags.occ_percent::switch_cpus.inst     0.958238                       # Average percentage of cache occupancy
system.cpu.icache.tags.occ_percent::total     0.999471                       # Average percentage of cache occupancy
system.cpu.icache.tags.occ_task_id_blocks::1024          511                       # Occupied blocks per task id
system.cpu.icache.tags.age_task_id_blocks_1024::0           60                       # Occupied blocks per task id
system.cpu.icache.tags.age_task_id_blocks_1024::1           17                       # Occupied blocks per task id
system.cpu.icache.tags.age_task_id_blocks_1024::2          433                       # Occupied blocks per task id
system.cpu.icache.tags.age_task_id_blocks_1024::3            1                       # Occupied blocks per task id
system.cpu.icache.tags.occ_task_id_percent::1024     0.998047                       # Percentage of cache occupancy per task id
system.cpu.icache.tags.tag_accesses            338688                       # Number of tag accesses
system.cpu.icache.tags.data_accesses           338688                       # Number of data accesses
system.cpu.icache.ReadReq_hits::switch_cpus.inst       152051                       # number of ReadReq hits
system.cpu.icache.ReadReq_hits::total          152051                       # number of ReadReq hits
system.cpu.icache.demand_hits::switch_cpus.inst       152051                       # number of demand (read+write) hits
system.cpu.icache.demand_hits::total           152051                       # number of demand (read+write) hits
system.cpu.icache.overall_hits::switch_cpus.inst       152051                       # number of overall hits
system.cpu.icache.overall_hits::total          152051                       # number of overall hits
system.cpu.icache.ReadReq_misses::switch_cpus.inst        12178                       # number of ReadReq misses
system.cpu.icache.ReadReq_misses::total         12178                       # number of ReadReq misses
system.cpu.icache.demand_misses::switch_cpus.inst        12178                       # number of demand (read+write) misses
system.cpu.icache.demand_misses::total          12178                       # number of demand (read+write) misses
system.cpu.icache.overall_misses::switch_cpus.inst        12178                       # number of overall misses
system.cpu.icache.overall_misses::total         12178                       # number of overall misses
system.cpu.icache.ReadReq_miss_latency::switch_cpus.inst    756607992                       # number of ReadReq miss cycles
system.cpu.icache.ReadReq_miss_latency::total    756607992                       # number of ReadReq miss cycles
system.cpu.icache.demand_miss_latency::switch_cpus.inst    756607992                       # number of demand (read+write) miss cycles
system.cpu.icache.demand_miss_latency::total    756607992                       # number of demand (read+write) miss cycles
system.cpu.icache.overall_miss_latency::switch_cpus.inst    756607992                       # number of overall miss cycles
system.cpu.icache.overall_miss_latency::total    756607992                       # number of overall miss cycles
system.cpu.icache.ReadReq_accesses::switch_cpus.inst       164229                       # number of ReadReq accesses(hits+misses)
system.cpu.icache.ReadReq_accesses::total       164229                       # number of ReadReq accesses(hits+misses)
system.cpu.icache.demand_accesses::switch_cpus.inst       164229                       # number of demand (read+write) accesses
system.cpu.icache.demand_accesses::total       164229                       # number of demand (read+write) accesses
system.cpu.icache.overall_accesses::switch_cpus.inst       164229                       # number of overall (read+write) accesses
system.cpu.icache.overall_accesses::total       164229                       # number of overall (read+write) accesses
system.cpu.icache.ReadReq_miss_rate::switch_cpus.inst     0.074153                       # miss rate for ReadReq accesses
system.cpu.icache.ReadReq_miss_rate::total     0.074153                       # miss rate for ReadReq accesses
system.cpu.icache.demand_miss_rate::switch_cpus.inst     0.074153                       # miss rate for demand accesses
system.cpu.icache.demand_miss_rate::total     0.074153                       # miss rate for demand accesses
system.cpu.icache.overall_miss_rate::switch_cpus.inst     0.074153                       # miss rate for overall accesses
system.cpu.icache.overall_miss_rate::total     0.074153                       # miss rate for overall accesses
system.cpu.icache.ReadReq_avg_miss_latency::switch_cpus.inst 62129.084579                       # average ReadReq miss latency
system.cpu.icache.ReadReq_avg_miss_latency::total 62129.084579                       # average ReadReq miss latency
system.cpu.icache.demand_avg_miss_latency::switch_cpus.inst 62129.084579                       # average overall miss latency
system.cpu.icache.demand_avg_miss_latency::total 62129.084579                       # average overall miss latency
system.cpu.icache.overall_avg_miss_latency::switch_cpus.inst 62129.084579                       # average overall miss latency
system.cpu.icache.overall_avg_miss_latency::total 62129.084579                       # average overall miss latency
system.cpu.icache.blocked_cycles::no_mshrs         2109                       # number of cycles access was blocked
system.cpu.icache.blocked_cycles::no_targets            0                       # number of cycles access was blocked
system.cpu.icache.blocked::no_mshrs                41                       # number of cycles access was blocked
system.cpu.icache.blocked::no_targets               0                       # number of cycles access was blocked
system.cpu.icache.avg_blocked_cycles::no_mshrs    51.439024                       # average number of cycles each access was blocked
system.cpu.icache.avg_blocked_cycles::no_targets          nan                       # average number of cycles each access was blocked
system.cpu.icache.fast_writes                       0                       # number of fast writes performed
system.cpu.icache.cache_copies                      0                       # number of cache copies performed
system.cpu.icache.ReadReq_mshr_hits::switch_cpus.inst         1948                       # number of ReadReq MSHR hits
system.cpu.icache.ReadReq_mshr_hits::total         1948                       # number of ReadReq MSHR hits
system.cpu.icache.demand_mshr_hits::switch_cpus.inst         1948                       # number of demand (read+write) MSHR hits
system.cpu.icache.demand_mshr_hits::total         1948                       # number of demand (read+write) MSHR hits
system.cpu.icache.overall_mshr_hits::switch_cpus.inst         1948                       # number of overall MSHR hits
system.cpu.icache.overall_mshr_hits::total         1948                       # number of overall MSHR hits
system.cpu.icache.ReadReq_mshr_misses::switch_cpus.inst        10230                       # number of ReadReq MSHR misses
[...]
system.switch_cpus.iew.wb_penalized_rate            0                       # fraction of instructions written-back that wrote to 'other' IQ
system.switch_cpus.commit.commitSquashedInsts   1540084192                       # The number of squashed insts skipped by commit
system.switch_cpus.commit.commitNonSpecStalls     38286763                       # The number of times commit has been forced to stall to communicate backwards
system.switch_cpus.commit.branchMispredicts     47920584                       # The number of times a branch was mispredicted
system.switch_cpus.commit.committed_per_cycle::samples   4294181025                       # Number of insts commited each cycle
system.switch_cpus.commit.committed_per_cycle::mean     1.207974                       # Number of insts commited each cycle
system.switch_cpus.commit.committed_per_cycle::stdev     2.349922                       # Number of insts commited each cycle
system.switch_cpus.commit.committed_per_cycle::underflows            0      0.00%      0.00% # Number of insts commited each cycle
system.switch_cpus.commit.committed_per_cycle::0   2858395220     66.56%     66.56% # Number of insts commited each cycle
system.switch_cpus.commit.committed_per_cycle::1    542105633     12.62%     79.19% # Number of insts commited each cycle
system.switch_cpus.commit.committed_per_cycle::2    179289924      4.18%     83.36% # Number of insts commited each cycle
system.switch_cpus.commit.committed_per_cycle::3    137025888      3.19%     86.55% # Number of insts commited each cycle
system.switch_cpus.commit.committed_per_cycle::4     97461217      2.27%     88.82% # Number of insts commited each cycle
system.switch_cpus.commit.committed_per_cycle::5     72319161      1.68%     90.51% # Number of insts commited each cycle
system.switch_cpus.commit.committed_per_cycle::6     41577711      0.97%     91.48% # Number of insts commited each cycle
system.switch_cpus.commit.committed_per_cycle::7     53463152      1.25%     92.72% # Number of insts commited each cycle
system.switch_cpus.commit.committed_per_cycle::8    312543119      7.28%    100.00% # Number of insts commited each cycle
system.switch_cpus.commit.committed_per_cycle::overflows            0      0.00%    100.00% # Number of insts commited each cycle
system.switch_cpus.commit.committed_per_cycle::min_value            0                       # Number of insts commited each cycle
system.switch_cpus.commit.committed_per_cycle::max_value            8                       # Number of insts commited each cycle
system.switch_cpus.commit.committed_per_cycle::total   4294181025                       # Number of insts commited each cycle
system.switch_cpus.commit.committedInsts   5187257100                       # Number of instructions committed
system.switch_cpus.commit.committedOps     5187257100                       # Number of ops (including micro ops) committed
system.switch_cpus.commit.swp_count                 0                       # Number of s/w prefetches committed
system.switch_cpus.commit.refs             1698264051                       # Number of memory references committed
system.switch_cpus.commit.loads            1109281319                       # Number of loads committed
system.switch_cpus.commit.membars            16803811                       # Number of memory barriers committed
system.switch_cpus.commit.branches          844392454                       # Number of branches committed
system.switch_cpus.commit.fp_insts          267481705                       # Number of committed floating point instructions.
system.switch_cpus.commit.int_insts        4731756986                       # Number of committed integer instructions.
system.switch_cpus.commit.function_calls     66021219                       # Number of function calls committed.
system.switch_cpus.commit.op_class_0::No_OpClass    188713051      3.64%      3.64% # Class of committed instruction
system.switch_cpus.commit.op_class_0::IntAlu   3015497110     58.13%     61.77% # Class of committed instruction
system.switch_cpus.commit.op_class_0::IntMult     54877351      1.06%     62.83% # Class of committed instruction
system.switch_cpus.commit.op_class_0::IntDiv            0      0.00%     62.83% # Class of committed instruction
system.switch_cpus.commit.op_class_0::FloatAdd    121687107      2.35%     65.17% # Class of committed instruction
system.switch_cpus.commit.op_class_0::FloatCmp     47040454      0.91%     66.08% # Class of committed instruction
system.switch_cpus.commit.op_class_0::FloatCvt          267      0.00%     66.08% # Class of committed instruction
system.switch_cpus.commit.op_class_0::FloatMult     24039648      0.46%     66.54% # Class of committed instruction
system.switch_cpus.commit.op_class_0::FloatDiv      1516440      0.03%     66.57% # Class of committed instruction
system.switch_cpus.commit.op_class_0::FloatSqrt      1183203      0.02%     66.60% # Class of committed instruction
system.switch_cpus.commit.op_class_0::SimdAdd            0      0.00%     66.60% # Class of committed instruction
system.switch_cpus.commit.op_class_0::SimdAddAcc            0      0.00%     66.60% # Class of committed instruction
system.switch_cpus.commit.op_class_0::SimdAlu            0      0.00%     66.60% # Class of committed instruction
system.switch_cpus.commit.op_class_0::SimdCmp            0      0.00%     66.60% # Class of committed instruction
system.switch_cpus.commit.op_class_0::SimdCvt            0      0.00%     66.60% # Class of committed instruction
system.switch_cpus.commit.op_class_0::SimdMisc            0      0.00%     66.60% # Class of committed instruction
system.switch_cpus.commit.op_class_0::SimdMult            0      0.00%     66.60% # Class of committed instruction
system.switch_cpus.commit.op_class_0::SimdMultAcc            0      0.00%     66.60% # Class of committed instruction
system.switch_cpus.commit.op_class_0::SimdShift            0      0.00%     66.60% # Class of committed instruction
system.switch_cpus.commit.op_class_0::SimdShiftAcc            0      0.00%     66.60% # Class of committed instruction
system.switch_cpus.commit.op_class_0::SimdSqrt            0      0.00%     66.60% # Class of committed instruction
system.switch_cpus.commit.op_class_0::SimdFloatAdd            0      0.00%     66.60% # Class of committed instruction
system.switch_cpus.commit.op_class_0::SimdFloatAlu            0      0.00%     66.60% # Class of committed instruction
system.switch_cpus.commit.op_class_0::SimdFloatCmp            0      0.00%     66.60% # Class of committed instruction
system.switch_cpus.commit.op_class_0::SimdFloatCvt            0      0.00%     66.60% # Class of committed instruction
system.switch_cpus.commit.op_class_0::SimdFloatDiv            0      0.00%     66.60% # Class of committed instruction
system.switch_cpus.commit.op_class_0::SimdFloatMisc            0      0.00%     66.60% # Class of committed instruction
system.switch_cpus.commit.op_class_0::SimdFloatMult            0      0.00%     66.60% # Class of committed instruction
system.switch_cpus.commit.op_class_0::SimdFloatMultAcc            0      0.00%     66.60% # Class of committed instruction
system.switch_cpus.commit.op_class_0::SimdFloatSqrt            0      0.00%     66.60% # Class of committed instruction
system.switch_cpus.commit.op_class_0::MemRead   1126085130     21.71%     88.31% # Class of committed instruction
system.switch_cpus.commit.op_class_0::MemWrite    589027033     11.36%     99.66% # Class of committed instruction
system.switch_cpus.commit.op_class_0::IprAccess     17590306      0.34%    100.00% # Class of committed instruction
system.switch_cpus.commit.op_class_0::InstPrefetch            0      0.00%    100.00% # Class of committed instruction
system.switch_cpus.commit.op_class_0::total   5187257100                       # Class of committed instruction
system.switch_cpus.commit.bw_lim_events     312543119                       # number cycles where commit BW limit reached
system.switch_cpus.rob.rob_reads          10693545683                       # The number of ROB reads
system.switch_cpus.rob.rob_writes         13679625294                       # The number of ROB writes
system.switch_cpus.timesIdled                 1821832                       # Number of times that the entire CPU went into an idle state and unscheduled itself
system.switch_cpus.idleCycles               123290675                       # Total number of cycles that the CPU has spent unscheduled due to idling
system.switch_cpus.quiesceCycles             58828147                       # Total number of cycles that CPU has spent quiesced or waiting for an interrupt
system.switch_cpus.committedInsts          4998546415                       # Number of Instructions Simulated
system.switch_cpus.committedOps            4998546415                       # Number of Ops (including micro ops) Simulated
system.switch_cpus.cpi                       0.928367                       # CPI: Cycles Per Instruction
system.switch_cpus.cpi_total                 0.928367                       # CPI: Total CPI of All Threads
system.switch_cpus.ipc                       1.077160                       # IPC: Instructions Per Cycle
system.switch_cpus.ipc_total                 1.077160                       # IPC: Total IPC of All Threads
system.switch_cpus.int_regfile_reads       7415353468                       # number of integer regfile reads
system.switch_cpus.int_regfile_writes      4025030914                       # number of integer regfile writes
system.switch_cpus.fp_regfile_reads         420527622                       # number of floating regfile reads
system.switch_cpus.fp_regfile_writes        218172196                       # number of floating regfile writes
system.switch_cpus.misc_regfile_reads       368094610                       # number of misc regfile reads
system.switch_cpus.misc_regfile_writes       43458813                       # number of misc regfile writes
system.tol2bus.trans_dist::ReadReq           15021450                       # Transaction distribution
system.tol2bus.trans_dist::ReadResp          15020941                       # Transaction distribution
system.tol2bus.trans_dist::WriteReq              9369                       # Transaction distribution
system.tol2bus.trans_dist::WriteResp             9369                       # Transaction distribution
system.tol2bus.trans_dist::Writeback         11478372                       # Transaction distribution
system.tol2bus.trans_dist::WriteInvalidateReq       375993                       # Transaction distribution
system.tol2bus.trans_dist::UpgradeReq             677                       # Transaction distribution
system.tol2bus.trans_dist::SCUpgradeReq            13                       # Transaction distribution
system.tol2bus.trans_dist::UpgradeResp            690                       # Transaction distribution
system.tol2bus.trans_dist::ReadExReq          6696692                       # Transaction distribution
system.tol2bus.trans_dist::ReadExResp         6696692                       # Transaction distribution
system.tol2bus.trans_dist::BadAddressError           13                       # Transaction distribution
system.tol2bus.pkt_count_system.cpu.icache.mem_side::system.l2.cpu_side      6140295                       # Packet count per connected master and slave (bytes)
system.tol2bus.pkt_count_system.cpu.dcache.mem_side::system.l2.cpu_side     48792410                       # Packet count per connected master and slave (bytes)
system.tol2bus.pkt_count::total              54932705                       # Packet count per connected master and slave (bytes)
system.tol2bus.pkt_size_system.cpu.icache.mem_side::system.l2.cpu_side    196467136                       # Cumulative packet size per connected master and slave (bytes)
system.tol2bus.pkt_size_system.cpu.dcache.mem_side::system.l2.cpu_side   1927752034                       # Cumulative packet size per connected master and slave (bytes)
system.tol2bus.pkt_size::total             2124219170                       # Cumulative packet size per connected master and slave (bytes)
system.tol2bus.snoops                          377944                       # Total snoops (count)
system.tol2bus.snoop_fanout::samples         33582566                       # Request fanout histogram
system.tol2bus.snoop_fanout::mean            1.011222                       # Request fanout histogram
system.tol2bus.snoop_fanout::stdev           0.105338                       # Request fanout histogram
system.tol2bus.snoop_fanout::underflows             0      0.00%      0.00% # Request fanout histogram
system.tol2bus.snoop_fanout::0                      0      0.00%      0.00% # Request fanout histogram
system.tol2bus.snoop_fanout::1               33205698     98.88%     98.88% # Request fanout histogram
system.tol2bus.snoop_fanout::2                 376868      1.12%    100.00% # Request fanout histogram
system.tol2bus.snoop_fanout::overflows              0      0.00%    100.00% # Request fanout histogram
system.tol2bus.snoop_fanout::min_value              1                       # Request fanout histogram
system.tol2bus.snoop_fanout::max_value              2                       # Request fanout histogram
system.tol2bus.snoop_fanout::total           33582566                       # Request fanout histogram
system.tol2bus.reqLayer0.occupancy        28085905999                       # Layer occupancy (ticks)
system.tol2bus.reqLayer0.utilization              1.2                       # Layer utilization (%)
system.tol2bus.snoopLayer0.occupancy           567000                       # Layer occupancy (ticks)
system.tol2bus.snoopLayer0.utilization            0.0                       # Layer utilization (%)
system.tol2bus.respLayer0.occupancy        4803207396                       # Layer occupancy (ticks)
system.tol2bus.respLayer0.utilization             0.2                       # Layer utilization (%)
system.tol2bus.respLayer1.occupancy       30480346368                       # Layer occupancy (ticks)
system.tol2bus.respLayer1.utilization             1.3                       # Layer utilization (%)
system.tsunami.ethernet.descDMAReads                0                       # Number of descriptors the device read w/ DMA
system.tsunami.ethernet.descDMAWrites               0                       # Number of descriptors the device wrote w/ DMA
system.tsunami.ethernet.descDmaReadBytes            0                       # number of descriptor bytes read w/ DMA
system.tsunami.ethernet.descDmaWriteBytes            0                       # number of descriptor bytes write w/ DMA
system.tsunami.ethernet.postedSwi                   0                       # number of software interrupts posted to CPU
system.tsunami.ethernet.coalescedSwi              nan                       # average number of Swi's coalesced into each post
system.tsunami.ethernet.totalSwi                    0                       # total number of Swi written to ISR
system.tsunami.ethernet.postedRxIdle                0                       # number of rxIdle interrupts posted to CPU
system.tsunami.ethernet.coalescedRxIdle           nan                       # average number of RxIdle's coalesced into each post
system.tsunami.ethernet.totalRxIdle                 0                       # total number of RxIdle written to ISR
system.tsunami.ethernet.postedRxOk                  0                       # number of RxOk interrupts posted to CPU
system.tsunami.ethernet.coalescedRxOk             nan                       # average number of RxOk's coalesced into each post
system.tsunami.ethernet.totalRxOk                   0                       # total number of RxOk written to ISR
system.tsunami.ethernet.postedRxDesc                0                       # number of RxDesc interrupts posted to CPU
system.tsunami.ethernet.coalescedRxDesc           nan                       # average number of RxDesc's coalesced into each post
system.tsunami.ethernet.totalRxDesc                 0                       # total number of RxDesc written to ISR
system.tsunami.ethernet.postedTxOk                  0                       # number of TxOk interrupts posted to CPU
system.tsunami.ethernet.coalescedTxOk             nan                       # average number of TxOk's coalesced into each post
system.tsunami.ethernet.totalTxOk                   0                       # total number of TxOk written to ISR
system.tsunami.ethernet.postedTxIdle                0                       # number of TxIdle interrupts posted to CPU
system.tsunami.ethernet.coalescedTxIdle           nan                       # average number of TxIdle's coalesced into each post
system.tsunami.ethernet.totalTxIdle                 0                       # total number of TxIdle written to ISR
system.tsunami.ethernet.postedTxDesc                0                       # number of TxDesc interrupts posted to CPU
system.tsunami.ethernet.coalescedTxDesc           nan                       # average number of TxDesc's coalesced into each post
system.tsunami.ethernet.totalTxDesc                 0                       # total number of TxDesc written to ISR
system.tsunami.ethernet.postedRxOrn                 0                       # number of RxOrn posted to CPU
system.tsunami.ethernet.coalescedRxOrn            nan                       # average number of RxOrn's coalesced into each post
system.tsunami.ethernet.totalRxOrn                  0                       # total number of RxOrn written to ISR
system.tsunami.ethernet.coalescedTotal            nan                       # average number of interrupts coalesced into each post
system.tsunami.ethernet.postedInterrupts            0                       # number of posts to CPU
system.tsunami.ethernet.droppedPackets              0                       # number of packets dropped
system.switch_cpus.kern.inst.arm                    0                       # number of arm instructions executed
system.switch_cpus.kern.inst.quiesce                0                       # number of quiesce instructions executed
system.switch_cpus.kern.inst.hwrei                  0                       # number of hwrei instructions executed
system.switch_cpus.kern.mode_switch::kernel            0                       # number of protection mode switches
system.switch_cpus.kern.mode_switch::user            0                       # number of protection mode switches
system.switch_cpus.kern.mode_switch::idle            0                       # number of protection mode switches
system.switch_cpus.kern.mode_good::kernel            0                      
system.switch_cpus.kern.mode_good::user             0                      
system.switch_cpus.kern.mode_good::idle             0                      
system.switch_cpus.kern.mode_switch_good::kernel          nan                       # fraction of useful protection mode switches
system.switch_cpus.kern.mode_switch_good::user          nan                       # fraction of useful protection mode switches
system.switch_cpus.kern.mode_switch_good::idle          nan                       # fraction of useful protection mode switches
system.switch_cpus.kern.mode_switch_good::total          nan                       # fraction of useful protection mode switches
system.switch_cpus.kern.mode_ticks::kernel            0                       # number of ticks spent at the given mode
system.switch_cpus.kern.mode_ticks::user            0                       # number of ticks spent at the given mode
system.switch_cpus.kern.mode_ticks::idle            0                       # number of ticks spent at the given mode
system.switch_cpus.kern.swap_context                0                       # number of times the context was actually changed

---------- End Simulation Statistics   ----------
