
---------- Begin Simulation Statistics ----------
sim_seconds                                  0.000665                       # Number of seconds simulated
sim_ticks                                   665052000                       # Number of ticks simulated
final_tick                               2255104200500                       # Number of ticks from beginning of simulation (restored from checkpoints and never reset)
sim_freq                                 1000000000000                       # Frequency of simulated ticks
host_inst_rate                               38564408                       # Simulator instruction rate (inst/s)
host_op_rate                                 38564306                       # Simulator op (including micro ops) rate (op/s)
host_tick_rate                              261753505                       # Simulator tick rate (ticks/s)
host_mem_usage                                 736368                       # Number of bytes of host memory used
host_seconds                                     2.54                       # Real time elapsed on the host
sim_insts                                    97982291                       # Number of instructions simulated
sim_ops                                      97982291                       # Number of ops (including micro ops) simulated
system.voltage_domain.voltage                       1                       # Voltage in Volts
system.clk_domain.clock                          1000                       # Clock period in ticks
system.mem_ctrls.bytes_read::switch_cpus.inst       111808                       # Number of bytes read from this memory
system.mem_ctrls.bytes_read::switch_cpus.data       229888                       # Number of bytes read from this memory
system.mem_ctrls.bytes_read::total             341696                       # Number of bytes read from this memory
system.mem_ctrls.bytes_inst_read::switch_cpus.inst       111808                       # Number of instructions bytes read from this memory
system.mem_ctrls.bytes_inst_read::total        111808                       # Number of instructions bytes read from this memory
system.mem_ctrls.bytes_written::writebacks       155840                       # Number of bytes written to this memory
system.mem_ctrls.bytes_written::total          155840                       # Number of bytes written to this memory
system.mem_ctrls.num_reads::switch_cpus.inst         1747                       # Number of read requests responded to by this memory
system.mem_ctrls.num_reads::switch_cpus.data         3592                       # Number of read requests responded to by this memory
system.mem_ctrls.num_reads::total                5339                       # Number of read requests responded to by this memory
system.mem_ctrls.num_writes::writebacks          2435                       # Number of write requests responded to by this memory
system.mem_ctrls.num_writes::total               2435                       # Number of write requests responded to by this memory
system.mem_ctrls.bw_read::switch_cpus.inst    168119185                       # Total read bandwidth from this memory (bytes/s)
system.mem_ctrls.bw_read::switch_cpus.data    345669211                       # Total read bandwidth from this memory (bytes/s)
system.mem_ctrls.bw_read::total             513788395                       # Total read bandwidth from this memory (bytes/s)
system.mem_ctrls.bw_inst_read::switch_cpus.inst    168119185                       # Instruction read bandwidth from this memory (bytes/s)
system.mem_ctrls.bw_inst_read::total        168119185                       # Instruction read bandwidth from this memory (bytes/s)
system.mem_ctrls.bw_write::writebacks       234327541                       # Write bandwidth from this memory (bytes/s)
system.mem_ctrls.bw_write::total            234327541                       # Write bandwidth from this memory (bytes/s)
system.mem_ctrls.bw_total::writebacks       234327541                       # Total bandwidth to/from this memory (bytes/s)
system.mem_ctrls.bw_total::switch_cpus.inst    168119185                       # Total bandwidth to/from this memory (bytes/s)
system.mem_ctrls.bw_total::switch_cpus.data    345669211                       # Total bandwidth to/from this memory (bytes/s)
system.mem_ctrls.bw_total::total            748115937                       # Total bandwidth to/from this memory (bytes/s)
system.mem_ctrls.readReqs                        5339                       # Number of read requests accepted
system.mem_ctrls.writeReqs                       2435                       # Number of write requests accepted
system.mem_ctrls.readBursts                      5339                       # Number of DRAM read bursts, including those serviced by the write queue
system.mem_ctrls.writeBursts                     2435                       # Number of DRAM write bursts, including those merged in the write queue
system.mem_ctrls.bytesReadDRAM                 340480                       # Total number of bytes read from DRAM
system.mem_ctrls.bytesReadWrQ                    1216                       # Total number of bytes read from write queue
system.mem_ctrls.bytesWritten                  154048                       # Total number of bytes written to DRAM
system.mem_ctrls.bytesReadSys                  341696                       # Total read bytes from the system interface side
system.mem_ctrls.bytesWrittenSys               155840                       # Total written bytes from the system interface side
system.mem_ctrls.servicedByWrQ                     19                       # Number of DRAM read bursts serviced by the write queue
system.mem_ctrls.mergedWrBursts                     0                       # Number of DRAM write bursts merged with an existing one
system.mem_ctrls.neitherReadNorWriteReqs            0                       # Number of requests that are neither read nor write
system.mem_ctrls.perBankRdBursts::0               516                       # Per bank write bursts
system.mem_ctrls.perBankRdBursts::1               181                       # Per bank write bursts
system.mem_ctrls.perBankRdBursts::2               289                       # Per bank write bursts
system.mem_ctrls.perBankRdBursts::3               453                       # Per bank write bursts
system.mem_ctrls.perBankRdBursts::4               114                       # Per bank write bursts
system.mem_ctrls.perBankRdBursts::5               474                       # Per bank write bursts
system.mem_ctrls.perBankRdBursts::6               212                       # Per bank write bursts
system.mem_ctrls.perBankRdBursts::7               293                       # Per bank write bursts
system.mem_ctrls.perBankRdBursts::8               408                       # Per bank write bursts
system.mem_ctrls.perBankRdBursts::9               223                       # Per bank write bursts
system.mem_ctrls.perBankRdBursts::10              405                       # Per bank write bursts
system.mem_ctrls.perBankRdBursts::11              614                       # Per bank write bursts
system.mem_ctrls.perBankRdBursts::12              149                       # Per bank write bursts
system.mem_ctrls.perBankRdBursts::13              572                       # Per bank write bursts
system.mem_ctrls.perBankRdBursts::14              219                       # Per bank write bursts
system.mem_ctrls.perBankRdBursts::15              198                       # Per bank write bursts
system.mem_ctrls.perBankWrBursts::0               111                       # Per bank write bursts
system.mem_ctrls.perBankWrBursts::1                78                       # Per bank write bursts
system.mem_ctrls.perBankWrBursts::2               148                       # Per bank write bursts
system.mem_ctrls.perBankWrBursts::3               425                       # Per bank write bursts
system.mem_ctrls.perBankWrBursts::4                52                       # Per bank write bursts
system.mem_ctrls.perBankWrBursts::5               420                       # Per bank write bursts
system.mem_ctrls.perBankWrBursts::6                98                       # Per bank write bursts
system.mem_ctrls.perBankWrBursts::7               137                       # Per bank write bursts
system.mem_ctrls.perBankWrBursts::8               254                       # Per bank write bursts
system.mem_ctrls.perBankWrBursts::9                85                       # Per bank write bursts
system.mem_ctrls.perBankWrBursts::10              153                       # Per bank write bursts
system.mem_ctrls.perBankWrBursts::11              125                       # Per bank write bursts
system.mem_ctrls.perBankWrBursts::12               34                       # Per bank write bursts
system.mem_ctrls.perBankWrBursts::13              138                       # Per bank write bursts
system.mem_ctrls.perBankWrBursts::14               66                       # Per bank write bursts
system.mem_ctrls.perBankWrBursts::15               83                       # Per bank write bursts
system.mem_ctrls.numRdRetry                         0                       # Number of times read queue was full causing retry
system.mem_ctrls.numWrRetry                         0                       # Number of times write queue was full causing retry
system.mem_ctrls.totGap                     662809000                       # Total gap between requests
system.mem_ctrls.readPktSize::0                     0                       # Read request sizes (log2)
system.mem_ctrls.readPktSize::1                     0                       # Read request sizes (log2)
system.mem_ctrls.readPktSize::2                     0                       # Read request sizes (log2)
system.mem_ctrls.readPktSize::3                     0                       # Read request sizes (log2)
system.mem_ctrls.readPktSize::4                     0                       # Read request sizes (log2)
system.mem_ctrls.readPktSize::5                     0                       # Read request sizes (log2)
system.mem_ctrls.readPktSize::6                  5339                       # Read request sizes (log2)
system.mem_ctrls.writePktSize::0                    0                       # Write request sizes (log2)
system.mem_ctrls.writePktSize::1                    0                       # Write request sizes (log2)
system.mem_ctrls.writePktSize::2                    0                       # Write request sizes (log2)
system.mem_ctrls.writePktSize::3                    0                       # Write request sizes (log2)
system.mem_ctrls.writePktSize::4                    0                       # Write request sizes (log2)
system.mem_ctrls.writePktSize::5                    0                       # Write request sizes (log2)
system.mem_ctrls.writePktSize::6                 2435                       # Write request sizes (log2)
system.mem_ctrls.rdQLenPdf::0                    3296                       # What read queue length does an incoming req see
system.mem_ctrls.rdQLenPdf::1                    1272                       # What read queue length does an incoming req see
system.mem_ctrls.rdQLenPdf::2                     516                       # What read queue length does an incoming req see
system.mem_ctrls.rdQLenPdf::3                     236                       # What read queue length does an incoming req see
system.mem_ctrls.rdQLenPdf::4                       0                       # What read queue length does an incoming req see
system.mem_ctrls.rdQLenPdf::5                       0                       # What read queue length does an incoming req see
system.mem_ctrls.rdQLenPdf::6                       0                       # What read queue length does an incoming req see
system.mem_ctrls.rdQLenPdf::7                       0                       # What read queue length does an incoming req see
system.mem_ctrls.rdQLenPdf::8                       0                       # What read queue length does an incoming req see
system.mem_ctrls.rdQLenPdf::9                       0                       # What read queue length does an incoming req see
system.mem_ctrls.rdQLenPdf::10                      0                       # What read queue length does an incoming req see
system.mem_ctrls.rdQLenPdf::11                      0                       # What read queue length does an incoming req see
system.mem_ctrls.rdQLenPdf::12                      0                       # What read queue length does an incoming req see
system.mem_ctrls.rdQLenPdf::13                      0                       # What read queue length does an incoming req see
system.mem_ctrls.rdQLenPdf::14                      0                       # What read queue length does an incoming req see
system.mem_ctrls.rdQLenPdf::15                      0                       # What read queue length does an incoming req see
system.mem_ctrls.rdQLenPdf::16                      0                       # What read queue length does an incoming req see
system.mem_ctrls.rdQLenPdf::17                      0                       # What read queue length does an incoming req see
system.mem_ctrls.rdQLenPdf::18                      0                       # What read queue length does an incoming req see
system.mem_ctrls.rdQLenPdf::19                      0                       # What read queue length does an incoming req see
system.mem_ctrls.rdQLenPdf::20                      0                       # What read queue length does an incoming req see
system.mem_ctrls.rdQLenPdf::21                      0                       # What read queue length does an incoming req see
system.mem_ctrls.rdQLenPdf::22                      0                       # What read queue length does an incoming req see
system.mem_ctrls.rdQLenPdf::23                      0                       # What read queue length does an incoming req see
system.mem_ctrls.rdQLenPdf::24                      0                       # What read queue length does an incoming req see
system.mem_ctrls.rdQLenPdf::25                      0                       # What read queue length does an incoming req see
system.mem_ctrls.rdQLenPdf::26                      0                       # What read queue length does an incoming req see
system.mem_ctrls.rdQLenPdf::27                      0                       # What read queue length does an incoming req see
system.mem_ctrls.rdQLenPdf::28                      0                       # What read queue length does an incoming req see
system.mem_ctrls.rdQLenPdf::29                      0                       # What read queue length does an incoming req see
system.mem_ctrls.rdQLenPdf::30                      0                       # What read queue length does an incoming req see
system.mem_ctrls.rdQLenPdf::31                      0                       # What read queue length does an incoming req see
system.mem_ctrls.wrQLenPdf::0                       1                       # What write queue length does an incoming req see
system.mem_ctrls.wrQLenPdf::1                       1                       # What write queue length does an incoming req see
system.mem_ctrls.wrQLenPdf::2                       1                       # What write queue length does an incoming req see
system.mem_ctrls.wrQLenPdf::3                       1                       # What write queue length does an incoming req see
system.mem_ctrls.wrQLenPdf::4                       1                       # What write queue length does an incoming req see
system.mem_ctrls.wrQLenPdf::5                       1                       # What write queue length does an incoming req see
system.mem_ctrls.wrQLenPdf::6                       1                       # What write queue length does an incoming req see
system.mem_ctrls.wrQLenPdf::7                       1                       # What write queue length does an incoming req see
system.mem_ctrls.wrQLenPdf::8                       1                       # What write queue length does an incoming req see
system.mem_ctrls.wrQLenPdf::9                       1                       # What write queue length does an incoming req see
system.mem_ctrls.wrQLenPdf::10                      1                       # What write queue length does an incoming req see
system.mem_ctrls.wrQLenPdf::11                      1                       # What write queue length does an incoming req see
system.mem_ctrls.wrQLenPdf::12                      1                       # What write queue length does an incoming req see
system.mem_ctrls.wrQLenPdf::13                      1                       # What write queue length does an incoming req see
system.mem_ctrls.wrQLenPdf::14                      1                       # What write queue length does an incoming req see
system.mem_ctrls.wrQLenPdf::15                     32                       # What write queue length does an incoming req see
system.mem_ctrls.wrQLenPdf::16                     33                       # What write queue length does an incoming req see
system.mem_ctrls.wrQLenPdf::17                    103                       # What write queue length does an incoming req see
system.mem_ctrls.wrQLenPdf::18                    135                       # What write queue length does an incoming req see
system.mem_ctrls.wrQLenPdf::19                    146                       # What write queue length does an incoming req see
system.mem_ctrls.wrQLenPdf::20                    153                       # What write queue length does an incoming req see
system.mem_ctrls.wrQLenPdf::21                    151                       # What write queue length does an incoming req see
system.mem_ctrls.wrQLenPdf::22                    151                       # What write queue length does an incoming req see
system.mem_ctrls.wrQLenPdf::23                    152                       # What write queue length does an incoming req see
system.mem_ctrls.wrQLenPdf::24                    148                       # What write queue length does an incoming req see
system.mem_ctrls.wrQLenPdf::25                    152                       # What write queue length does an incoming req see
system.mem_ctrls.wrQLenPdf::26                    158                       # What write queue length does an incoming req see
system.mem_ctrls.wrQLenPdf::27                    148                       # What write queue length does an incoming req see
system.mem_ctrls.wrQLenPdf::28                    149                       # What write queue length does an incoming req see
system.mem_ctrls.wrQLenPdf::29                    165                       # What write queue length does an incoming req see
system.mem_ctrls.wrQLenPdf::30                    150                       # What write queue length does an incoming req see
system.mem_ctrls.wrQLenPdf::31                    147                       # What write queue length does an incoming req see
system.mem_ctrls.wrQLenPdf::32                    146                       # What write queue length does an incoming req see
system.mem_ctrls.wrQLenPdf::33                      1                       # What write queue length does an incoming req see
system.mem_ctrls.wrQLenPdf::34                      0                       # What write queue length does an incoming req see
system.mem_ctrls.wrQLenPdf::35                      0                       # What write queue length does an incoming req see
system.mem_ctrls.wrQLenPdf::36                      0                       # What write queue length does an incoming req see
system.mem_ctrls.wrQLenPdf::37                      0                       # What write queue length does an incoming req see
system.mem_ctrls.wrQLenPdf::38                      0                       # What write queue length does an incoming req see
system.mem_ctrls.wrQLenPdf::39                      0                       # What write queue length does an incoming req see
system.mem_ctrls.wrQLenPdf::40                      0                       # What write queue length does an incoming req see
system.mem_ctrls.wrQLenPdf::41                      0                       # What write queue length does an incoming req see
system.mem_ctrls.wrQLenPdf::42                      0                       # What write queue length does an incoming req see
system.mem_ctrls.wrQLenPdf::43                      0                       # What write queue length does an incoming req see
system.mem_ctrls.wrQLenPdf::44                      0                       # What write queue length does an incoming req see
system.mem_ctrls.wrQLenPdf::45                      0                       # What write queue length does an incoming req see
system.mem_ctrls.wrQLenPdf::46                      0                       # What write queue length does an incoming req see
system.mem_ctrls.wrQLenPdf::47                      0                       # What write queue length does an incoming req see
system.mem_ctrls.wrQLenPdf::48                      0                       # What write queue length does an incoming req see
system.mem_ctrls.wrQLenPdf::49                      0                       # What write queue length does an incoming req see
system.mem_ctrls.wrQLenPdf::50                      0                       # What write queue length does an incoming req see
system.mem_ctrls.wrQLenPdf::51                      0                       # What write queue length does an incoming req see
system.mem_ctrls.wrQLenPdf::52                      0                       # What write queue length does an incoming req see
system.mem_ctrls.wrQLenPdf::53                      0                       # What write queue length does an incoming req see
system.mem_ctrls.wrQLenPdf::54                      0                       # What write queue length does an incoming req see
system.mem_ctrls.wrQLenPdf::55                      0                       # What write queue length does an incoming req see
system.mem_ctrls.wrQLenPdf::56                      0                       # What write queue length does an incoming req see
system.mem_ctrls.wrQLenPdf::57                      0                       # What write queue length does an incoming req see
system.mem_ctrls.wrQLenPdf::58                      0                       # What write queue length does an incoming req see
system.mem_ctrls.wrQLenPdf::59                      0                       # What write queue length does an incoming req see
system.mem_ctrls.wrQLenPdf::60                      0                       # What write queue length does an incoming req see
system.mem_ctrls.wrQLenPdf::61                      0                       # What write queue length does an incoming req see
system.mem_ctrls.wrQLenPdf::62                      0                       # What write queue length does an incoming req see
system.mem_ctrls.wrQLenPdf::63                      0                       # What write queue length does an incoming req see
system.mem_ctrls.bytesPerActivate::samples         2059                       # Bytes accessed per row activation
system.mem_ctrls.bytesPerActivate::mean    240.116561                       # Bytes accessed per row activation
system.mem_ctrls.bytesPerActivate::gmean   146.542714                       # Bytes accessed per row activation
system.mem_ctrls.bytesPerActivate::stdev   278.012525                       # Bytes accessed per row activation
system.mem_ctrls.bytesPerActivate::0-127          918     44.58%     44.58% # Bytes accessed per row activation
system.mem_ctrls.bytesPerActivate::128-255          543     26.37%     70.96% # Bytes accessed per row activation
system.mem_ctrls.bytesPerActivate::256-383          188      9.13%     80.09% # Bytes accessed per row activation
system.mem_ctrls.bytesPerActivate::384-511           96      4.66%     84.75% # Bytes accessed per row activation
system.mem_ctrls.bytesPerActivate::512-639           70      3.40%     88.15% # Bytes accessed per row activation
system.mem_ctrls.bytesPerActivate::640-767           56      2.72%     90.87% # Bytes accessed per row activation
system.mem_ctrls.bytesPerActivate::768-895           24      1.17%     92.03% # Bytes accessed per row activation
system.mem_ctrls.bytesPerActivate::896-1023           25      1.21%     93.25% # Bytes accessed per row activation
system.mem_ctrls.bytesPerActivate::1024-1151          139      6.75%    100.00% # Bytes accessed per row activation
system.mem_ctrls.bytesPerActivate::total         2059                       # Bytes accessed per row activation
system.mem_ctrls.rdPerTurnAround::samples          146                       # Reads before turning the bus around for writes
system.mem_ctrls.rdPerTurnAround::mean      36.287671                       # Reads before turning the bus around for writes
system.mem_ctrls.rdPerTurnAround::gmean     30.947946                       # Reads before turning the bus around for writes
system.mem_ctrls.rdPerTurnAround::stdev     23.576423                       # Reads before turning the bus around for writes
system.mem_ctrls.rdPerTurnAround::8-15              6      4.11%      4.11% # Reads before turning the bus around for writes
system.mem_ctrls.rdPerTurnAround::16-23            47     32.19%     36.30% # Reads before turning the bus around for writes
system.mem_ctrls.rdPerTurnAround::24-31            31     21.23%     57.53% # Reads before turning the bus around for writes
system.mem_ctrls.rdPerTurnAround::32-39            18     12.33%     69.86% # Reads before turning the bus around for writes
system.mem_ctrls.rdPerTurnAround::40-47            10      6.85%     76.71% # Reads before turning the bus around for writes
system.mem_ctrls.rdPerTurnAround::48-55            13      8.90%     85.62% # Reads before turning the bus around for writes
system.mem_ctrls.rdPerTurnAround::56-63             6      4.11%     89.73% # Reads before turning the bus around for writes
system.mem_ctrls.rdPerTurnAround::64-71             2      1.37%     91.10% # Reads before turning the bus around for writes
system.mem_ctrls.rdPerTurnAround::72-79             4      2.74%     93.84% # Reads before turning the bus around for writes
system.mem_ctrls.rdPerTurnAround::80-87             2      1.37%     95.21% # Reads before turning the bus around for writes
system.mem_ctrls.rdPerTurnAround::88-95             1      0.68%     95.89% # Reads before turning the bus around for writes
system.mem_ctrls.rdPerTurnAround::96-103            1      0.68%     96.58% # Reads before turning the bus around for writes
system.mem_ctrls.rdPerTurnAround::104-111            1      0.68%     97.26% # Reads before turning the bus around for writes
system.mem_ctrls.rdPerTurnAround::112-119            3      2.05%     99.32% # Reads before turning the bus around for writes
system.mem_ctrls.rdPerTurnAround::136-143            1      0.68%    100.00% # Reads before turning the bus around for writes
system.mem_ctrls.rdPerTurnAround::total           146                       # Reads before turning the bus around for writes
system.mem_ctrls.wrPerTurnAround::samples          146                       # Writes before turning the bus around for reads
system.mem_ctrls.wrPerTurnAround::mean      16.486301                       # Writes before turning the bus around for reads
system.mem_ctrls.wrPerTurnAround::gmean     16.462868                       # Writes before turning the bus around for reads
system.mem_ctrls.wrPerTurnAround::stdev      0.903910                       # Writes before turning the bus around for reads
system.mem_ctrls.wrPerTurnAround::16              112     76.71%     76.71% # Writes before turning the bus around for reads
system.mem_ctrls.wrPerTurnAround::17                1      0.68%     77.40% # Writes before turning the bus around for reads
system.mem_ctrls.wrPerTurnAround::18               29     19.86%     97.26% # Writes before turning the bus around for reads
system.mem_ctrls.wrPerTurnAround::19                4      2.74%    100.00% # Writes before turning the bus around for reads
system.mem_ctrls.wrPerTurnAround::total           146                       # Writes before turning the bus around for reads
system.mem_ctrls.totQLat                     74050000                       # Total ticks spent queuing
system.mem_ctrls.totMemAccLat               173800000                       # Total ticks spent from burst creation until serviced by the DRAM
system.mem_ctrls.totBusLat                   26600000                       # Total ticks spent in databus transfers
system.mem_ctrls.avgQLat                     13919.17                       # Average queueing delay per DRAM burst
system.mem_ctrls.avgBusLat                    5000.00                       # Average bus latency per DRAM burst
system.mem_ctrls.avgMemAccLat                32669.17                       # Average memory access latency per DRAM burst
system.mem_ctrls.avgRdBW                       511.96                       # Average DRAM read bandwidth in MiByte/s
system.mem_ctrls.avgWrBW                       231.63                       # Average achieved write bandwidth in MiByte/s
system.mem_ctrls.avgRdBWSys                    513.79                       # Average system read bandwidth in MiByte/s
system.mem_ctrls.avgWrBWSys                    234.33                       # Average system write bandwidth in MiByte/s
system.mem_ctrls.peakBW                      12800.00                       # Theoretical peak bandwidth in MiByte/s
system.mem_ctrls.busUtil                         5.81                       # Data bus utilization in percentage
system.mem_ctrls.busUtilRead                     4.00                       # Data bus utilization in percentage for reads
system.mem_ctrls.busUtilWrite                    1.81                       # Data bus utilization in percentage for writes
system.mem_ctrls.avgRdQLen                       1.39                       # Average read queue length when enqueuing
system.mem_ctrls.avgWrQLen                      25.00                       # Average write queue length when enqueuing
system.mem_ctrls.readRowHits                     4075                       # Number of row buffer hits during reads
system.mem_ctrls.writeRowHits                    1591                       # Number of row buffer hits during writes
system.mem_ctrls.readRowHitRate                 76.60                       # Row buffer hit rate for reads
system.mem_ctrls.writeRowHitRate                65.34                       # Row buffer hit rate for writes
system.mem_ctrls.avgGap                      85259.71                       # Average gap between requests
system.mem_ctrls.pageHitRate                    73.06                       # Row buffer hit rate, read and write combined
system.mem_ctrls_0.actEnergy                  7711200                       # Energy for activate commands per rank (pJ)
system.mem_ctrls_0.preEnergy                  4207500                       # Energy for precharge commands per rank (pJ)
system.mem_ctrls_0.readEnergy                19741800                       # Energy for read commands per rank (pJ)
system.mem_ctrls_0.writeEnergy                9519120                       # Energy for write commands per rank (pJ)
system.mem_ctrls_0.refreshEnergy             43227600                       # Energy for refresh commands per rank (pJ)
system.mem_ctrls_0.actBackEnergy            378855630                       # Energy for active background per rank (pJ)
system.mem_ctrls_0.preBackEnergy             64925250                       # Energy for precharge background per rank (pJ)
system.mem_ctrls_0.totalEnergy              528188100                       # Total energy per rank (pJ)
system.mem_ctrls_0.averagePower            797.757258                       # Core power per rank (mW)
system.mem_ctrls_0.memoryStateTime::IDLE    106346000                       # Time in different power states
system.mem_ctrls_0.memoryStateTime::REF      22100000                       # Time in different power states
system.mem_ctrls_0.memoryStateTime::PRE_PDN            0                       # Time in different power states
system.mem_ctrls_0.memoryStateTime::ACT     534386500                       # Time in different power states
system.mem_ctrls_0.memoryStateTime::ACT_PDN            0                       # Time in different power states
system.mem_ctrls_1.actEnergy                  7854840                       # Energy for activate commands per rank (pJ)
system.mem_ctrls_1.preEnergy                  4285875                       # Energy for precharge commands per rank (pJ)
system.mem_ctrls_1.readEnergy                21738600                       # Energy for read commands per rank (pJ)
system.mem_ctrls_1.writeEnergy                6078240                       # Energy for write commands per rank (pJ)
system.mem_ctrls_1.refreshEnergy             43227600                       # Energy for refresh commands per rank (pJ)
system.mem_ctrls_1.actBackEnergy            401675580                       # Energy for active background per rank (pJ)
system.mem_ctrls_1.preBackEnergy             44907750                       # Energy for precharge background per rank (pJ)
system.mem_ctrls_1.totalEnergy              529768485                       # Total energy per rank (pJ)
system.mem_ctrls_1.averagePower            800.144217                       # Core power per rank (mW)
system.mem_ctrls_1.memoryStateTime::IDLE     72808750                       # Time in different power states
system.mem_ctrls_1.memoryStateTime::REF      22100000                       # Time in different power states
system.mem_ctrls_1.memoryStateTime::PRE_PDN            0                       # Time in different power states
system.mem_ctrls_1.memoryStateTime::ACT     567763250                       # Time in different power states
system.mem_ctrls_1.memoryStateTime::ACT_PDN            0                       # Time in different power states
system.cpu_voltage_domain.voltage                   1                       # Voltage in Volts
system.cpu_clk_domain.clock                       500                       # Clock period in ticks
system.cpu.dtb.fetch_hits                           0                       # ITB hits
system.cpu.dtb.fetch_misses                         0                       # ITB misses
system.cpu.dtb.fetch_acv                            0                       # ITB acv
system.cpu.dtb.fetch_accesses                       0                       # ITB accesses
system.cpu.dtb.read_hits                            0                       # DTB read hits
system.cpu.dtb.read_misses                          0                       # DTB read misses
system.cpu.dtb.read_acv                             0                       # DTB read access violations
system.cpu.dtb.read_accesses                        0                       # DTB read accesses
system.cpu.dtb.write_hits                           0                       # DTB write hits
system.cpu.dtb.write_misses                         0                       # DTB write misses
system.cpu.dtb.write_acv                            0                       # DTB write access violations
system.cpu.dtb.write_accesses                       0                       # DTB write accesses
system.cpu.dtb.data_hits                            0                       # DTB hits
system.cpu.dtb.data_misses                          0                       # DTB misses
system.cpu.dtb.data_acv                             0                       # DTB access violations
system.cpu.dtb.data_accesses                        0                       # DTB accesses
system.cpu.itb.fetch_hits                           0                       # ITB hits
system.cpu.itb.fetch_misses                         0                       # ITB misses
system.cpu.itb.fetch_acv                            0                       # ITB acv
system.cpu.itb.fetch_accesses                       0                       # ITB accesses
system.cpu.itb.read_hits                            0                       # DTB read hits
system.cpu.itb.read_misses                          0                       # DTB read misses
system.cpu.itb.read_acv                             0                       # DTB read access violations
system.cpu.itb.read_accesses                        0                       # DTB read accesses
system.cpu.itb.write_hits                           0                       # DTB write hits
system.cpu.itb.write_misses                         0                       # DTB write misses
system.cpu.itb.write_acv                            0                       # DTB write access violations
system.cpu.itb.write_accesses                       0                       # DTB write accesses
system.cpu.itb.data_hits                            0                       # DTB hits
system.cpu.itb.data_misses                          0                       # DTB misses
system.cpu.itb.data_acv                             0                       # DTB access violations
system.cpu.itb.data_accesses                        0                       # DTB accesses
system.cpu.numCycles                                0                       # number of cpu cycles simulated
system.cpu.numWorkItemsStarted                      0                       # number of work items this cpu started
system.cpu.numWorkItemsCompleted                    0                       # number of work items this cpu completed
system.cpu.committedInsts                           0                       # Number of instructions committed
system.cpu.committedOps                             0                       # Number of ops (including micro ops) committed
system.cpu.num_int_alu_accesses                     0                       # Number of integer alu accesses
system.cpu.num_fp_alu_accesses                      0                       # Number of float alu accesses
system.cpu.num_func_calls                           0                       # number of times a function call or return occured
system.cpu.num_conditional_control_insts            0                       # number of instructions that are conditional controls
system.cpu.num_int_insts                            0                       # number of integer instructions
system.cpu.num_fp_insts                             0                       # number of float instructions
system.cpu.num_int_register_reads                   0                       # number of times the integer registers were read
system.cpu.num_int_register_writes                  0                       # number of times the integer registers were written
system.cpu.num_fp_register_reads                    0                       # number of times the floating registers were read
system.cpu.num_fp_register_writes                   0                       # number of times the floating registers were written
system.cpu.num_mem_refs                             0                       # number of memory refs
system.cpu.num_load_insts                           0                       # Number of load instructions
system.cpu.num_store_insts                          0                       # Number of store instructions
system.cpu.num_idle_cycles                          0                       # Number of idle cycles
system.cpu.num_busy_cycles                          0                       # Number of busy cycles
system.cpu.not_idle_fraction                        1                       # Percentage of non-idle cycles
system.cpu.idle_fraction                            0                       # Percentage of idle cycles
system.cpu.op_class::No_OpClass                     0                       # Class of executed instruction
system.cpu.op_class::IntAlu                         0                       # Class of executed instruction
system.cpu.op_class::IntMult                        0                       # Class of executed instruction
system.cpu.op_class::IntDiv                         0                       # Class of executed instruction
system.cpu.op_class::FloatAdd                       0                       # Class of executed instruction
system.cpu.op_class::FloatCmp                       0                       # Class of executed instruction
system.cpu.op_class::FloatCvt                       0                       # Class of executed instruction
system.cpu.op_class::FloatMult                      0                       # Class of executed instruction
system.cpu.op_class::FloatDiv                       0                       # Class of executed instruction
system.cpu.op_class::FloatSqrt                      0                       # Class of executed instruction
system.cpu.op_class::SimdAdd                        0                       # Class of executed instruction
system.cpu.op_class::SimdAddAcc                     0                       # Class of executed instruction
system.cpu.op_class::SimdAlu                        0                       # Class of executed instruction
system.cpu.op_class::SimdCmp                        0                       # Class of executed instruction
system.cpu.op_class::SimdCvt                        0                       # Class of executed instruction
system.cpu.op_class::SimdMisc                       0                       # Class of executed instruction
system.cpu.op_class::SimdMult                       0                       # Class of executed instruction
system.cpu.op_class::SimdMultAcc                    0                       # Class of executed instruction
system.cpu.op_class::SimdShift                      0                       # Class of executed instruction
system.cpu.op_class::SimdShiftAcc                   0                       # Class of executed instruction
system.cpu.op_class::SimdSqrt                       0                       # Class of executed instruction
system.cpu.op_class::SimdFloatAdd                   0                       # Class of executed instruction
system.cpu.op_class::SimdFloatAlu                   0                       # Class of executed instruction
system.cpu.op_class::SimdFloatCmp                   0                       # Class of executed instruction
system.cpu.op_class::SimdFloatCvt                   0                       # Class of executed instruction
system.cpu.op_class::SimdFloatDiv                   0                       # Class of executed instruction
system.cpu.op_class::SimdFloatMisc                  0                       # Class of executed instruction
system.cpu.op_class::SimdFloatMult                  0                       # Class of executed instruction
system.cpu.op_class::SimdFloatMultAcc               0                       # Class of executed instruction
system.cpu.op_class::SimdFloatSqrt                  0                       # Class of executed instruction
system.cpu.op_class::MemRead                        0                       # Class of executed instruction
system.cpu.op_class::MemWrite                       0                       # Class of executed instruction
system.cpu.op_class::IprAccess                      0                       # Class of executed instruction
system.cpu.op_class::InstPrefetch                   0                       # Class of executed instruction
system.cpu.op_class::total                          0                       # Class of executed instruction
system.cpu.kern.inst.arm                            0                       # number of arm instructions executed
system.cpu.kern.inst.quiesce                        0                       # number of quiesce instructions executed
system.cpu.kern.inst.hwrei                       2781                       # number of hwrei instructions executed
system.cpu.kern.ipl_count::0                      635     49.15%     49.15% # number of times we switched to this ipl
system.cpu.kern.ipl_count::22                       1      0.08%     49.23% # number of times we switched to this ipl
system.cpu.kern.ipl_count::31                     656     50.77%    100.00% # number of times we switched to this ipl
system.cpu.kern.ipl_count::total                 1292                       # number of times we switched to this ipl
system.cpu.kern.ipl_good::0                       633     49.96%     49.96% # number of times we switched to this ipl from a different ipl
system.cpu.kern.ipl_good::22                        1      0.08%     50.04% # number of times we switched to this ipl from a different ipl
system.cpu.kern.ipl_good::31                      633     49.96%    100.00% # number of times we switched to this ipl from a different ipl
system.cpu.kern.ipl_good::total                  1267                       # number of times we switched to this ipl from a different ipl
system.cpu.kern.ipl_ticks::0                599882500     90.27%     90.27% # number of cycles we spent at this ipl
system.cpu.kern.ipl_ticks::22                 1486500      0.22%     90.50% # number of cycles we spent at this ipl
system.cpu.kern.ipl_ticks::31                63161500      9.50%    100.00% # number of cycles we spent at this ipl
system.cpu.kern.ipl_ticks::total            664530500                       # number of cycles we spent at this ipl
system.cpu.kern.ipl_used::0                  0.996850                       # fraction of swpipl calls that actually changed the ipl
system.cpu.kern.ipl_used::22                        1                       # fraction of swpipl calls that actually changed the ipl
system.cpu.kern.ipl_used::31                 0.964939                       # fraction of swpipl calls that actually changed the ipl
system.cpu.kern.ipl_used::total              0.980650                       # fraction of swpipl calls that actually changed the ipl
system.cpu.kern.syscall::2                          1      5.56%      5.56% # number of syscalls executed
system.cpu.kern.syscall::3                          2     11.11%     16.67% # number of syscalls executed
system.cpu.kern.syscall::6                          2     11.11%     27.78% # number of syscalls executed
system.cpu.kern.syscall::17                         1      5.56%     33.33% # number of syscalls executed
system.cpu.kern.syscall::19                         1      5.56%     38.89% # number of syscalls executed
system.cpu.kern.syscall::33                         1      5.56%     44.44% # number of syscalls executed
system.cpu.kern.syscall::45                         3     16.67%     61.11% # number of syscalls executed
system.cpu.kern.syscall::48                         1      5.56%     66.67% # number of syscalls executed
system.cpu.kern.syscall::59                         1      5.56%     72.22% # number of syscalls executed
system.cpu.kern.syscall::71                         4     22.22%     94.44% # number of syscalls executed
system.cpu.kern.syscall::74                         1      5.56%    100.00% # number of syscalls executed
system.cpu.kern.syscall::total                     18                       # number of syscalls executed
system.cpu.kern.callpal::swpctx                   118      8.10%      8.10% # number of callpals executed
system.cpu.kern.callpal::tbi                        6      0.41%      8.51% # number of callpals executed
system.cpu.kern.callpal::swpipl                  1107     75.98%     84.49% # number of callpals executed
system.cpu.kern.callpal::rdps                       3      0.21%     84.69% # number of callpals executed
system.cpu.kern.callpal::wrusp                      1      0.07%     84.76% # number of callpals executed
system.cpu.kern.callpal::rdusp                      1      0.07%     84.83% # number of callpals executed
system.cpu.kern.callpal::rti                      184     12.63%     97.46% # number of callpals executed
system.cpu.kern.callpal::callsys                   33      2.26%     99.73% # number of callpals executed
system.cpu.kern.callpal::imb                        4      0.27%    100.00% # number of callpals executed
system.cpu.kern.callpal::total                   1457                       # number of callpals executed
system.cpu.kern.mode_switch::kernel               302                       # number of protection mode switches
system.cpu.kern.mode_switch::user                 181                       # number of protection mode switches
system.cpu.kern.mode_switch::idle                   0                       # number of protection mode switches
system.cpu.kern.mode_good::kernel                 181                      
system.cpu.kern.mode_good::user                   181                      
system.cpu.kern.mode_good::idle                     0                      
system.cpu.kern.mode_switch_good::kernel     0.599338                       # fraction of useful protection mode switches
system.cpu.kern.mode_switch_good::user              1                       # fraction of useful protection mode switches
system.cpu.kern.mode_switch_good::idle            nan                       # fraction of useful protection mode switches
system.cpu.kern.mode_switch_good::total      0.749482                       # fraction of useful protection mode switches
system.cpu.kern.mode_ticks::kernel          433341000     65.21%     65.21% # number of ticks spent at the given mode
system.cpu.kern.mode_ticks::user            231182500     34.79%    100.00% # number of ticks spent at the given mode
system.cpu.kern.mode_ticks::idle                    0      0.00%    100.00% # number of ticks spent at the given mode
system.cpu.kern.swap_context                      118                       # number of times the context was actually changed
system.cpu.dcache.tags.replacements             18289                       # number of replacements
system.cpu.dcache.tags.tagsinuse                  512                       # Cycle average of tags in use
system.cpu.dcache.tags.total_refs              200161                       # Total number of references to valid blocks.
system.cpu.dcache.tags.sampled_refs             18289                       # Sample count of references to valid blocks.
system.cpu.dcache.tags.avg_refs             10.944338                       # Average number of references to valid blocks.
system.cpu.dcache.tags.warmup_cycle                 0                       # Cycle when the warmup percentage was hit.
system.cpu.dcache.tags.occ_blocks::cpu.data    25.958794                       # Average occupied blocks per requestor
system.cpu.dcache.tags.occ_blocks::switch_cpus.data   486.041206                       # Average occupied blocks per requestor
system.cpu.dcache.tags.occ_percent::cpu.data     0.050701                       # Average percentage of cache occupancy
system.cpu.dcache.tags.occ_percent::switch_cpus.data     0.949299                       # Average percentage of cache occupancy
system.cpu.dcache.tags.occ_percent::total            1                       # Average percentage of cache occupancy
system.cpu.dcache.tags.occ_task_id_blocks::1024          512                       # Occupied blocks per task id
system.cpu.dcache.tags.age_task_id_blocks_1024::0          346                       # Occupied blocks per task id
system.cpu.dcache.tags.age_task_id_blocks_1024::1          165                       # Occupied blocks per task id
system.cpu.dcache.tags.age_task_id_blocks_1024::2            1                       # Occupied blocks per task id
system.cpu.dcache.tags.occ_task_id_percent::1024            1                       # Percentage of cache occupancy per task id
system.cpu.dcache.tags.tag_accesses           1183413                       # Number of tag accesses
system.cpu.dcache.tags.data_accesses          1183413                       # Number of data accesses
system.cpu.dcache.ReadReq_hits::switch_cpus.data       133601                       # number of ReadReq hits
system.cpu.dcache.ReadReq_hits::total          133601                       # number of ReadReq hits
system.cpu.dcache.WriteReq_hits::switch_cpus.data        59016                       # number of WriteReq hits
system.cpu.dcache.WriteReq_hits::total          59016                       # number of WriteReq hits
system.cpu.dcache.LoadLockedReq_hits::switch_cpus.data         2239                       # number of LoadLockedReq hits
system.cpu.dcache.LoadLockedReq_hits::total         2239                       # number of LoadLockedReq hits
system.cpu.dcache.StoreCondReq_hits::switch_cpus.data         2378                       # number of StoreCondReq hits
system.cpu.dcache.StoreCondReq_hits::total         2378                       # number of StoreCondReq hits
system.cpu.dcache.demand_hits::switch_cpus.data       192617                       # number of demand (read+write) hits
system.cpu.dcache.demand_hits::total           192617                       # number of demand (read+write) hits
system.cpu.dcache.overall_hits::switch_cpus.data       192617                       # number of overall hits
system.cpu.dcache.overall_hits::total          192617                       # number of overall hits
system.cpu.dcache.ReadReq_misses::switch_cpus.data        26404                       # number of ReadReq misses
system.cpu.dcache.ReadReq_misses::total         26404                       # number of ReadReq misses
system.cpu.dcache.WriteReq_misses::switch_cpus.data        67248                       # number of WriteReq misses
system.cpu.dcache.WriteReq_misses::total        67248                       # number of WriteReq misses
system.cpu.dcache.LoadLockedReq_misses::switch_cpus.data          395                       # number of LoadLockedReq misses
system.cpu.dcache.LoadLockedReq_misses::total          395                       # number of LoadLockedReq misses
system.cpu.dcache.demand_misses::switch_cpus.data        93652                       # number of demand (read+write) misses
system.cpu.dcache.demand_misses::total          93652                       # number of demand (read+write) misses
system.cpu.dcache.overall_misses::switch_cpus.data        93652                       # number of overall misses
system.cpu.dcache.overall_misses::total         93652                       # number of overall misses
system.cpu.dcache.ReadReq_miss_latency::switch_cpus.data    687376247                       # number of ReadReq miss cycles
system.cpu.dcache.ReadReq_miss_latency::total    687376247                       # number of ReadReq miss cycles
system.cpu.dcache.WriteReq_miss_latency::switch_cpus.data   1823726248                       # number of WriteReq miss cycles
system.cpu.dcache.WriteReq_miss_latency::total   1823726248                       # number of WriteReq miss cycles
system.cpu.dcache.LoadLockedReq_miss_latency::switch_cpus.data      7051750                       # number of LoadLockedReq miss cycles
system.cpu.dcache.LoadLockedReq_miss_latency::total      7051750                       # number of LoadLockedReq miss cycles
system.cpu.dcache.demand_miss_latency::switch_cpus.data   2511102495                       # number of demand (read+write) miss cycles
system.cpu.dcache.demand_miss_latency::total   2511102495                       # number of demand (read+write) miss cycles
system.cpu.dcache.overall_miss_latency::switch_cpus.data   2511102495                       # number of overall miss cycles
system.cpu.dcache.overall_miss_latency::total   2511102495                       # number of overall miss cycles
system.cpu.dcache.ReadReq_accesses::switch_cpus.data       160005                       # number of ReadReq accesses(hits+misses)
system.cpu.dcache.ReadReq_accesses::total       160005                       # number of ReadReq accesses(hits+misses)
system.cpu.dcache.WriteReq_accesses::switch_cpus.data       126264                       # number of WriteReq accesses(hits+misses)
system.cpu.dcache.WriteReq_accesses::total       126264                       # number of WriteReq accesses(hits+misses)
system.cpu.dcache.LoadLockedReq_accesses::switch_cpus.data         2634                       # number of LoadLockedReq accesses(hits+misses)
system.cpu.dcache.LoadLockedReq_accesses::total         2634                       # number of LoadLockedReq accesses(hits+misses)
system.cpu.dcache.StoreCondReq_accesses::switch_cpus.data         2378                       # number of StoreCondReq accesses(hits+misses)
system.cpu.dcache.StoreCondReq_accesses::total         2378                       # number of StoreCondReq accesses(hits+misses)
system.cpu.dcache.demand_accesses::switch_cpus.data       286269                       # number of demand (read+write) accesses
system.cpu.dcache.demand_accesses::total       286269                       # number of demand (read+write) accesses
system.cpu.dcache.overall_accesses::switch_cpus.data       286269                       # number of overall (read+write) accesses
system.cpu.dcache.overall_accesses::total       286269                       # number of overall (read+write) accesses
system.cpu.dcache.ReadReq_miss_rate::switch_cpus.data     0.165020                       # miss rate for ReadReq accesses
system.cpu.dcache.ReadReq_miss_rate::total     0.165020                       # miss rate for ReadReq accesses
system.cpu.dcache.WriteReq_miss_rate::switch_cpus.data     0.532598                       # miss rate for WriteReq accesses
system.cpu.dcache.WriteReq_miss_rate::total     0.532598                       # miss rate for WriteReq accesses
system.cpu.dcache.LoadLockedReq_miss_rate::switch_cpus.data     0.149962                       # miss rate for LoadLockedReq accesses
system.cpu.dcache.LoadLockedReq_miss_rate::total     0.149962                       # miss rate for LoadLockedReq accesses
system.cpu.dcache.demand_miss_rate::switch_cpus.data     0.327147                       # miss rate for demand accesses
system.cpu.dcache.demand_miss_rate::total     0.327147                       # miss rate for demand accesses
system.cpu.dcache.overall_miss_rate::switch_cpus.data     0.327147                       # miss rate for overall accesses
system.cpu.dcache.overall_miss_rate::total     0.327147                       # miss rate for overall accesses
system.cpu.dcache.ReadReq_avg_miss_latency::switch_cpus.data 26033.034654                       # average ReadReq miss latency
system.cpu.dcache.ReadReq_avg_miss_latency::total 26033.034654                       # average ReadReq miss latency
system.cpu.dcache.WriteReq_avg_miss_latency::switch_cpus.data 27119.412443                       # average WriteReq miss latency
system.cpu.dcache.WriteReq_avg_miss_latency::total 27119.412443                       # average WriteReq miss latency
system.cpu.dcache.LoadLockedReq_avg_miss_latency::switch_cpus.data 17852.531646                       # average LoadLockedReq miss latency
system.cpu.dcache.LoadLockedReq_avg_miss_latency::total 17852.531646                       # average LoadLockedReq miss latency
system.cpu.dcache.demand_avg_miss_latency::switch_cpus.data 26813.121930                       # average overall miss latency
system.cpu.dcache.demand_avg_miss_latency::total 26813.121930                       # average overall miss latency
system.cpu.dcache.overall_avg_miss_latency::switch_cpus.data 26813.121930                       # average overall miss latency
system.cpu.dcache.overall_avg_miss_latency::total 26813.121930                       # average overall miss latency
system.cpu.dcache.blocked_cycles::no_mshrs        76076                       # number of cycles access was blocked
system.cpu.dcache.blocked_cycles::no_targets           87                       # number of cycles access was blocked
system.cpu.dcache.blocked::no_mshrs              4590                       # number of cycles access was blocked
system.cpu.dcache.blocked::no_targets               2                       # number of cycles access was blocked
system.cpu.dcache.avg_blocked_cycles::no_mshrs    16.574292                       # average number of cycles each access was blocked
system.cpu.dcache.avg_blocked_cycles::no_targets    43.500000                       # average number of cycles each access was blocked
system.cpu.dcache.fast_writes                       0                       # number of fast writes performed
system.cpu.dcache.cache_copies                      0                       # number of cache copies performed
system.cpu.dcache.writebacks::writebacks        13034                       # number of writebacks
system.cpu.dcache.writebacks::total             13034                       # number of writebacks
system.cpu.dcache.ReadReq_mshr_hits::switch_cpus.data        17428                       # number of ReadReq MSHR hits
system.cpu.dcache.ReadReq_mshr_hits::total        17428                       # number of ReadReq MSHR hits
system.cpu.dcache.WriteReq_mshr_hits::switch_cpus.data        58152                       # number of WriteReq MSHR hits
system.cpu.dcache.WriteReq_mshr_hits::total        58152                       # number of WriteReq MSHR hits
system.cpu.dcache.LoadLockedReq_mshr_hits::switch_cpus.data          176                       # number of LoadLockedReq MSHR hits
system.cpu.dcache.LoadLockedReq_mshr_hits::total          176                       # number of LoadLockedReq MSHR hits
system.cpu.dcache.demand_mshr_hits::switch_cpus.data        75580                       # number of demand (read+write) MSHR hits
system.cpu.dcache.demand_mshr_hits::total        75580                       # number of demand (read+write) MSHR hits
system.cpu.dcache.overall_mshr_hits::switch_cpus.data        75580                       # number of overall MSHR hits
system.cpu.dcache.overall_mshr_hits::total        75580                       # number of overall MSHR hits
system.cpu.dcache.ReadReq_mshr_misses::switch_cpus.data         8976                       # number of ReadReq MSHR misses
system.cpu.dcache.ReadReq_mshr_misses::total         8976                       # number of ReadReq MSHR misses
system.cpu.dcache.WriteReq_mshr_misses::switch_cpus.data         9096                       # number of WriteReq MSHR misses
system.cpu.dcache.WriteReq_mshr_misses::total         9096                       # number of WriteReq MSHR misses
system.cpu.dcache.LoadLockedReq_mshr_misses::switch_cpus.data          219                       # number of LoadLockedReq MSHR misses
system.cpu.dcache.LoadLockedReq_mshr_misses::total          219                       # number of LoadLockedReq MSHR misses
system.cpu.dcache.demand_mshr_misses::switch_cpus.data        18072                       # number of demand (read+write) MSHR misses
system.cpu.dcache.demand_mshr_misses::total        18072                       # number of demand (read+write) MSHR misses
system.cpu.dcache.overall_mshr_misses::switch_cpus.data        18072                       # number of overall MSHR misses
system.cpu.dcache.overall_mshr_misses::total        18072                       # number of overall MSHR misses
system.cpu.dcache.WriteReq_mshr_uncacheable::switch_cpus.data            1                       # number of WriteReq MSHR uncacheable
system.cpu.dcache.WriteReq_mshr_uncacheable::total            1                       # number of WriteReq MSHR uncacheable
system.cpu.dcache.overall_mshr_uncacheable_misses::switch_cpus.data            1                       # number of overall MSHR uncacheable misses
system.cpu.dcache.overall_mshr_uncacheable_misses::total            1                       # number of overall MSHR uncacheable misses
system.cpu.dcache.ReadReq_mshr_miss_latency::switch_cpus.data    221609003                       # number of ReadReq MSHR miss cycles
system.cpu.dcache.ReadReq_mshr_miss_latency::total    221609003                       # number of ReadReq MSHR miss cycles
system.cpu.dcache.WriteReq_mshr_miss_latency::switch_cpus.data    251360051                       # number of WriteReq MSHR miss cycles
system.cpu.dcache.WriteReq_mshr_miss_latency::total    251360051                       # number of WriteReq MSHR miss cycles
system.cpu.dcache.LoadLockedReq_mshr_miss_latency::switch_cpus.data      4075250                       # number of LoadLockedReq MSHR miss cycles
system.cpu.dcache.LoadLockedReq_mshr_miss_latency::total      4075250                       # number of LoadLockedReq MSHR miss cycles
system.cpu.dcache.demand_mshr_miss_latency::switch_cpus.data    472969054                       # number of demand (read+write) MSHR miss cycles
system.cpu.dcache.demand_mshr_miss_latency::total    472969054                       # number of demand (read+write) MSHR miss cycles
system.cpu.dcache.overall_mshr_miss_latency::switch_cpus.data    472969054                       # number of overall MSHR miss cycles
system.cpu.dcache.overall_mshr_miss_latency::total    472969054                       # number of overall MSHR miss cycles
system.cpu.dcache.WriteReq_mshr_uncacheable_latency::switch_cpus.data       227500                       # number of WriteReq MSHR uncacheable cycles
system.cpu.dcache.WriteReq_mshr_uncacheable_latency::total       227500                       # number of WriteReq MSHR uncacheable cycles
system.cpu.dcache.overall_mshr_uncacheable_latency::switch_cpus.data       227500                       # number of overall MSHR uncacheable cycles
system.cpu.dcache.overall_mshr_uncacheable_latency::total       227500                       # number of overall MSHR uncacheable cycles
system.cpu.dcache.ReadReq_mshr_miss_rate::switch_cpus.data     0.056098                       # mshr miss rate for ReadReq accesses
system.cpu.dcache.ReadReq_mshr_miss_rate::total     0.056098                       # mshr miss rate for ReadReq accesses
system.cpu.dcache.WriteReq_mshr_miss_rate::switch_cpus.data     0.072040                       # mshr miss rate for WriteReq accesses
system.cpu.dcache.WriteReq_mshr_miss_rate::total     0.072040                       # mshr miss rate for WriteReq accesses
system.cpu.dcache.LoadLockedReq_mshr_miss_rate::switch_cpus.data     0.083144                       # mshr miss rate for LoadLockedReq accesses
system.cpu.dcache.LoadLockedReq_mshr_miss_rate::total     0.083144                       # mshr miss rate for LoadLockedReq accesses
system.cpu.dcache.demand_mshr_miss_rate::switch_cpus.data     0.063129                       # mshr miss rate for demand accesses
system.cpu.dcache.demand_mshr_miss_rate::total     0.063129                       # mshr miss rate for demand accesses
system.cpu.dcache.overall_mshr_miss_rate::switch_cpus.data     0.063129                       # mshr miss rate for overall accesses
system.cpu.dcache.overall_mshr_miss_rate::total     0.063129                       # mshr miss rate for overall accesses
system.cpu.dcache.ReadReq_avg_mshr_miss_latency::switch_cpus.data 24689.060049                       # average ReadReq mshr miss latency
system.cpu.dcache.ReadReq_avg_mshr_miss_latency::total 24689.060049                       # average ReadReq mshr miss latency
system.cpu.dcache.WriteReq_avg_mshr_miss_latency::switch_cpus.data 27634.130497                       # average WriteReq mshr miss latency
system.cpu.dcache.WriteReq_avg_mshr_miss_latency::total 27634.130497                       # average WriteReq mshr miss latency
system.cpu.dcache.LoadLockedReq_avg_mshr_miss_latency::switch_cpus.data 18608.447489                       # average LoadLockedReq mshr miss latency
system.cpu.dcache.LoadLockedReq_avg_mshr_miss_latency::total 18608.447489                       # average LoadLockedReq mshr miss latency
system.cpu.dcache.demand_avg_mshr_miss_latency::switch_cpus.data 26171.373063                       # average overall mshr miss latency
system.cpu.dcache.demand_avg_mshr_miss_latency::total 26171.373063                       # average overall mshr miss latency
system.cpu.dcache.overall_avg_mshr_miss_latency::switch_cpus.data 26171.373063                       # average overall mshr miss latency
system.cpu.dcache.overall_avg_mshr_miss_latency::total 26171.373063                       # average overall mshr miss latency
system.cpu.dcache.WriteReq_avg_mshr_uncacheable_latency::switch_cpus.data       227500                       # average WriteReq mshr uncacheable latency
system.cpu.dcache.WriteReq_avg_mshr_uncacheable_latency::total       227500                       # average WriteReq mshr uncacheable latency
system.cpu.dcache.overall_avg_mshr_uncacheable_latency::switch_cpus.data       227500                       # average overall mshr uncacheable latency
system.cpu.dcache.overall_avg_mshr_uncacheable_latency::total       227500                       # average overall mshr uncacheable latency
system.cpu.dcache.no_allocate_misses                0                       # Number of misses that were no-allocate
system.cpu.icache.tags.replacements             10361                       # number of replacements
system.cpu.icache.tags.tagsinuse           511.870968                       # Cycle average of tags in use
system.cpu.icache.tags.total_refs              363338                       # Total number of references to valid blocks.
system.cpu.icache.tags.sampled_refs             10361                       # Sample count of references to valid blocks.
system.cpu.icache.tags.avg_refs             35.067851                       # Average number of references to valid blocks.
system.cpu.icache.tags.warmup_cycle                 0                       # Cycle when the warmup percentage was hit.
system.cpu.icache.tags.occ_blocks::cpu.inst    22.812288                       # Average occupied blocks per requestor
system.cpu.icache.tags.occ_blocks::switch_cpus.inst   489.058680                       # Average occupied blocks per requestor
system.cpu.icache.tags.occ_percent::cpu.inst     0.044555                       # Average percentage of cache occupancy
system.cpu.icache.tags.occ_percent::switch_cpus.inst     0.955193                       # Average percentage of cache occupancy
system.cpu.icache.tags.occ_percent::total     0.999748                       # Average percentage of cache occupancy
system.cpu.icache.tags.occ_task_id_blocks::1024          511                       # Occupied blocks per task id
system.cpu.icache.tags.age_task_id_blocks_1024::0           69                       # Occupied blocks per task id
system.cpu.icache.tags.age_task_id_blocks_1024::1          118                       # Occupied blocks per task id
system.cpu.icache.tags.age_task_id_blocks_1024::2          324                       # Occupied blocks per task id
system.cpu.icache.tags.occ_task_id_percent::1024     0.998047                       # Percentage of cache occupancy per task id
system.cpu.icache.tags.tag_accesses            333552                       # Number of tag accesses
system.cpu.icache.tags.data_accesses           333552                       # Number of data accesses
system.cpu.icache.ReadReq_hits::switch_cpus.inst       149671                       # number of ReadReq hits
system.cpu.icache.ReadReq_hits::total          149671                       # number of ReadReq hits
system.cpu.icache.demand_hits::switch_cpus.inst       149671                       # number of demand (read+write) hits
system.cpu.icache.demand_hits::total           149671                       # number of demand (read+write) hits
system.cpu.icache.overall_hits::switch_cpus.inst       149671                       # number of overall hits
system.cpu.icache.overall_hits::total          149671                       # number of overall hits
system.cpu.icache.ReadReq_misses::switch_cpus.inst        11924                       # number of ReadReq misses
system.cpu.icache.ReadReq_misses::total         11924                       # number of ReadReq misses
system.cpu.icache.demand_misses::switch_cpus.inst        11924                       # number of demand (read+write) misses
system.cpu.icache.demand_misses::total          11924                       # number of demand (read+write) misses
system.cpu.icache.overall_misses::switch_cpus.inst        11924                       # number of overall misses
system.cpu.icache.overall_misses::total         11924                       # number of overall misses
system.cpu.icache.ReadReq_miss_latency::switch_cpus.inst    301855211                       # number of ReadReq miss cycles
system.cpu.icache.ReadReq_miss_latency::total    301855211                       # number of ReadReq miss cycles
system.cpu.icache.demand_miss_latency::switch_cpus.inst    301855211                       # number of demand (read+write) miss cycles
system.cpu.icache.demand_miss_latency::total    301855211                       # number of demand (read+write) miss cycles
system.cpu.icache.overall_miss_latency::switch_cpus.inst    301855211                       # number of overall miss cycles
system.cpu.icache.overall_miss_latency::total    301855211                       # number of overall miss cycles
system.cpu.icache.ReadReq_accesses::switch_cpus.inst       161595                       # number of ReadReq accesses(hits+misses)
system.cpu.icache.ReadReq_accesses::total       161595                       # number of ReadReq accesses(hits+misses)
system.cpu.icache.demand_accesses::switch_cpus.inst       161595                       # number of demand (read+write) accesses
system.cpu.icache.demand_accesses::total       161595                       # number of demand (read+write) accesses
system.cpu.icache.overall_accesses::switch_cpus.inst       161595                       # number of overall (read+write) accesses
system.cpu.icache.overall_accesses::total       161595                       # number of overall (read+write) accesses
system.cpu.icache.ReadReq_miss_rate::switch_cpus.inst     0.073789                       # miss rate for ReadReq accesses
system.cpu.icache.ReadReq_miss_rate::total     0.073789                       # miss rate for ReadReq accesses
system.cpu.icache.demand_miss_rate::switch_cpus.inst     0.073789                       # miss rate for demand accesses
system.cpu.icache.demand_miss_rate::total     0.073789                       # miss rate for demand accesses
system.cpu.icache.overall_miss_rate::switch_cpus.inst     0.073789                       # miss rate for overall accesses
system.cpu.icache.overall_miss_rate::total     0.073789                       # miss rate for overall accesses
system.cpu.icache.ReadReq_avg_miss_latency::switch_cpus.inst 25314.928799                       # average ReadReq miss latency
system.cpu.icache.ReadReq_avg_miss_latency::total 25314.928799                       # average ReadReq miss latency
system.cpu.icache.demand_avg_miss_latency::switch_cpus.inst 25314.928799                       # average overall miss latency
system.cpu.icache.demand_avg_miss_latency::total 25314.928799                       # average overall miss latency
system.cpu.icache.overall_avg_miss_latency::switch_cpus.inst 25314.928799                       # average overall miss latency
system.cpu.icache.overall_avg_miss_latency::total 25314.928799                       # average overall miss latency
system.cpu.icache.blocked_cycles::no_mshrs         2085                       # number of cycles access was blocked
system.cpu.icache.blocked_cycles::no_targets            0                       # number of cycles access was blocked
system.cpu.icache.blocked::no_mshrs                79                       # number of cycles access was blocked
system.cpu.icache.blocked::no_targets               0                       # number of cycles access was blocked
system.cpu.icache.avg_blocked_cycles::no_mshrs    26.392405                       # average number of cycles each access was blocked
system.cpu.icache.avg_blocked_cycles::no_targets          nan                       # average number of cycles each access was blocked
system.cpu.icache.fast_writes                       0                       # number of fast writes performed
system.cpu.icache.cache_copies                      0                       # number of cache copies performed
system.cpu.icache.ReadReq_mshr_hits::switch_cpus.inst         1562                       # number of ReadReq MSHR hits
system.cpu.icache.ReadReq_mshr_hits::total         1562                       # number of ReadReq MSHR hits
system.cpu.icache.demand_mshr_hits::switch_cpus.inst         1562                       # number of demand (read+write) MSHR hits
system.cpu.icache.demand_mshr_hits::total         1562                       # number of demand (read+write) MSHR hits
system.cpu.icache.overall_mshr_hits::switch_cpus.inst         1562                       # number of overall MSHR hits
system.cpu.icache.overall_mshr_hits::total         1562                       # number of overall MSHR hits
system.cpu.icache.ReadReq_mshr_misses::switch_cpus.inst        10362                       # number of ReadReq MSHR misses
system.cpu.icache.ReadReq_mshr_misses::total        10362                       # number of ReadReq MSHR misses
system.cpu.icache.demand_mshr_misses::switch_cpus.inst        10362                       # number of demand (read+write) MSHR misses
system.cpu.icache.demand_mshr_misses::total        10362                       # number of demand (read+write) MSHR misses
system.cpu.icache.overall_mshr_misses::switch_cpus.inst        10362                       # number of overall MSHR misses
system.cpu.icache.overall_mshr_misses::total        10362                       # number of overall MSHR misses
system.cpu.icache.ReadReq_mshr_miss_latency::switch_cpus.inst    242643522                       # number of ReadReq MSHR miss cycles
system.cpu.icache.ReadReq_mshr_miss_latency::total    242643522                       # number of ReadReq MSHR miss cycles
system.cpu.icache.demand_mshr_miss_latency::switch_cpus.inst    242643522                       # number of demand (read+write) MSHR miss cycles
system.cpu.icache.demand_mshr_miss_latency::total    242643522                       # number of demand (read+write) MSHR miss cycles
system.cpu.icache.overall_mshr_miss_latency::switch_cpus.inst    242643522                       # number of overall MSHR miss cycles
system.cpu.icache.overall_mshr_miss_latency::total    242643522                       # number of overall MSHR miss cycles
system.cpu.icache.ReadReq_mshr_miss_rate::switch_cpus.inst     0.064123                       # mshr miss rate for ReadReq accesses
system.cpu.icache.ReadReq_mshr_miss_rate::total     0.064123                       # mshr miss rate for ReadReq accesses
system.cpu.icache.demand_mshr_miss_rate::switch_cpus.inst     0.064123                       # mshr miss rate for demand accesses
system.cpu.icache.demand_mshr_miss_rate::total     0.064123                       # mshr miss rate for demand accesses
system.cpu.icache.overall_mshr_miss_rate::switch_cpus.inst     0.064123                       # mshr miss rate for overall accesses
system.cpu.icache.overall_mshr_miss_rate::total     0.064123                       # mshr miss rate for overall accesses
system.cpu.icache.ReadReq_avg_mshr_miss_latency::switch_cpus.inst 23416.668790                       # average ReadReq mshr miss latency
system.cpu.icache.ReadReq_avg_mshr_miss_latency::total 23416.668790                       # average ReadReq mshr miss latency
system.cpu.icache.demand_avg_mshr_miss_latency::switch_cpus.inst 23416.668790                       # average overall mshr miss latency
system.cpu.icache.demand_avg_mshr_miss_latency::total 23416.668790                       # average overall mshr miss latency
system.cpu.icache.overall_avg_mshr_miss_latency::switch_cpus.inst 23416.668790                       # average overall mshr miss latency
[...]
system.switch_cpus.iew.wb_count            2633630679                       # cumulative count of insts written-back
system.switch_cpus.iew.wb_producers        1749045579                       # num instructions producing a value
system.switch_cpus.iew.wb_consumers        2116091380                       # num instructions consuming a value
system.switch_cpus.iew.wb_penalized                 0                       # number of instrctions required to write to 'other' IQ
system.switch_cpus.iew.wb_rate               2.900015                       # insts written-back per cycle
system.switch_cpus.iew.wb_fanout             0.826545                       # average fanout of values written-back
system.switch_cpus.iew.wb_penalized_rate            0                       # fraction of instructions written-back that wrote to 'other' IQ
system.switch_cpus.commit.commitSquashedInsts    126370097                       # The number of squashed insts skipped by commit
system.switch_cpus.commit.commitNonSpecStalls        39205                       # The number of times commit has been forced to stall to communicate backwards
system.switch_cpus.commit.branchMispredicts      3200628                       # The number of times a branch was mispredicted
system.switch_cpus.commit.committed_per_cycle::samples    875691514                       # Number of insts commited each cycle
system.switch_cpus.commit.committed_per_cycle::mean     3.093684                       # Number of insts commited each cycle
system.switch_cpus.commit.committed_per_cycle::stdev     3.231579                       # Number of insts commited each cycle
system.switch_cpus.commit.committed_per_cycle::underflows            0      0.00%      0.00% # Number of insts commited each cycle
system.switch_cpus.commit.committed_per_cycle::0    301505934     34.43%     34.43% # Number of insts commited each cycle
system.switch_cpus.commit.committed_per_cycle::1    104242642     11.90%     46.33% # Number of insts commited each cycle
system.switch_cpus.commit.committed_per_cycle::2     99789469     11.40%     57.73% # Number of insts commited each cycle
system.switch_cpus.commit.committed_per_cycle::3     43346829      4.95%     62.68% # Number of insts commited each cycle
system.switch_cpus.commit.committed_per_cycle::4     51847403      5.92%     68.60% # Number of insts commited each cycle
system.switch_cpus.commit.committed_per_cycle::5     20426289      2.33%     70.93% # Number of insts commited each cycle
system.switch_cpus.commit.committed_per_cycle::6     30118102      3.44%     74.37% # Number of insts commited each cycle
system.switch_cpus.commit.committed_per_cycle::7     10297515      1.18%     75.55% # Number of insts commited each cycle
system.switch_cpus.commit.committed_per_cycle::8    214117331     24.45%    100.00% # Number of insts commited each cycle
system.switch_cpus.commit.committed_per_cycle::overflows            0      0.00%    100.00% # Number of insts commited each cycle
system.switch_cpus.commit.committed_per_cycle::min_value            0                       # Number of insts commited each cycle
system.switch_cpus.commit.committed_per_cycle::max_value            8                       # Number of insts commited each cycle
system.switch_cpus.commit.committed_per_cycle::total    875691514                       # Number of insts commited each cycle
system.switch_cpus.commit.committedInsts   2709112989                       # Number of instructions committed
system.switch_cpus.commit.committedOps     2709112989                       # Number of ops (including micro ops) committed
system.switch_cpus.commit.swp_count                 0                       # Number of s/w prefetches committed
system.switch_cpus.commit.refs              573002069                       # Number of memory references committed
system.switch_cpus.commit.loads             490885600                       # Number of loads committed
system.switch_cpus.commit.membars               13509                       # Number of memory barriers committed
system.switch_cpus.commit.branches           38809729                       # Number of branches committed
system.switch_cpus.commit.fp_insts             769550                       # Number of committed floating point instructions.
system.switch_cpus.commit.int_insts        2579759694                       # Number of committed integer instructions.
system.switch_cpus.commit.function_calls      1707271                       # Number of function calls committed.
system.switch_cpus.commit.op_class_0::No_OpClass    126359240      4.66%      4.66% # Class of committed instruction
system.switch_cpus.commit.op_class_0::IntAlu   1992013951     73.53%     78.19% # Class of committed instruction
system.switch_cpus.commit.op_class_0::IntMult     13750733      0.51%     78.70% # Class of committed instruction
system.switch_cpus.commit.op_class_0::IntDiv            0      0.00%     78.70% # Class of committed instruction
system.switch_cpus.commit.op_class_0::FloatAdd       731485      0.03%     78.73% # Class of committed instruction
system.switch_cpus.commit.op_class_0::FloatCmp            0      0.00%     78.73% # Class of committed instruction
system.switch_cpus.commit.op_class_0::FloatCvt         1962      0.00%     78.73% # Class of committed instruction
system.switch_cpus.commit.op_class_0::FloatMult            1      0.00%     78.73% # Class of committed instruction
system.switch_cpus.commit.op_class_0::FloatDiv          654      0.00%     78.73% # Class of committed instruction
system.switch_cpus.commit.op_class_0::FloatSqrt            0      0.00%     78.73% # Class of committed instruction
system.switch_cpus.commit.op_class_0::SimdAdd            0      0.00%     78.73% # Class of committed instruction
system.switch_cpus.commit.op_class_0::SimdAddAcc            0      0.00%     78.73% # Class of committed instruction
system.switch_cpus.commit.op_class_0::SimdAlu            0      0.00%     78.73% # Class of committed instruction
system.switch_cpus.commit.op_class_0::SimdCmp            0      0.00%     78.73% # Class of committed instruction
system.switch_cpus.commit.op_class_0::SimdCvt            0      0.00%     78.73% # Class of committed instruction
system.switch_cpus.commit.op_class_0::SimdMisc            0      0.00%     78.73% # Class of committed instruction
system.switch_cpus.commit.op_class_0::SimdMult            0      0.00%     78.73% # Class of committed instruction
system.switch_cpus.commit.op_class_0::SimdMultAcc            0      0.00%     78.73% # Class of committed instruction
system.switch_cpus.commit.op_class_0::SimdShift            0      0.00%     78.73% # Class of committed instruction
system.switch_cpus.commit.op_class_0::SimdShiftAcc            0      0.00%     78.73% # Class of committed instruction
system.switch_cpus.commit.op_class_0::SimdSqrt            0      0.00%     78.73% # Class of committed instruction
system.switch_cpus.commit.op_class_0::SimdFloatAdd            0      0.00%     78.73% # Class of committed instruction
system.switch_cpus.commit.op_class_0::SimdFloatAlu            0      0.00%     78.73% # Class of committed instruction
system.switch_cpus.commit.op_class_0::SimdFloatCmp            0      0.00%     78.73% # Class of committed instruction
system.switch_cpus.commit.op_class_0::SimdFloatCvt            0      0.00%     78.73% # Class of committed instruction
system.switch_cpus.commit.op_class_0::SimdFloatDiv            0      0.00%     78.73% # Class of committed instruction
system.switch_cpus.commit.op_class_0::SimdFloatMisc            0      0.00%     78.73% # Class of committed instruction
system.switch_cpus.commit.op_class_0::SimdFloatMult            0      0.00%     78.73% # Class of committed instruction
system.switch_cpus.commit.op_class_0::SimdFloatMultAcc            0      0.00%     78.73% # Class of committed instruction
system.switch_cpus.commit.op_class_0::SimdFloatSqrt            0      0.00%     78.73% # Class of committed instruction
system.switch_cpus.commit.op_class_0::MemRead    490899109     18.12%     96.85% # Class of committed instruction
system.switch_cpus.commit.op_class_0::MemWrite     82117871      3.03%     99.88% # Class of committed instruction
system.switch_cpus.commit.op_class_0::IprAccess      3237983      0.12%    100.00% # Class of committed instruction
system.switch_cpus.commit.op_class_0::InstPrefetch            0      0.00%    100.00% # Class of committed instruction
system.switch_cpus.commit.op_class_0::total   2709112989                       # Class of committed instruction
system.switch_cpus.commit.bw_lim_events     214117331                       # number cycles where commit BW limit reached
system.switch_cpus.rob.rob_reads           3492501557                       # The number of ROB reads
system.switch_cpus.rob.rob_writes          5689346311                       # The number of ROB writes
system.switch_cpus.timesIdled                 3771475                       # Number of times that the entire CPU went into an idle state and unscheduled itself
system.switch_cpus.idleCycles                14131542                       # Total number of cycles that the CPU has spent unscheduled due to idling
system.switch_cpus.committedInsts          2582755057                       # Number of Instructions Simulated
system.switch_cpus.committedOps            2582755057                       # Number of Ops (including micro ops) Simulated
system.switch_cpus.cpi                       0.351618                       # CPI: Cycles Per Instruction
system.switch_cpus.cpi_total                 0.351618                       # CPI: Total CPI of All Threads
system.switch_cpus.ipc                       2.843994                       # IPC: Instructions Per Cycle
system.switch_cpus.ipc_total                 2.843994                       # IPC: Total IPC of All Threads
system.switch_cpus.int_regfile_reads       4288367861                       # number of integer regfile reads
system.switch_cpus.int_regfile_writes      2499387698                       # number of integer regfile writes
system.switch_cpus.fp_regfile_reads             54571                       # number of floating regfile reads
system.switch_cpus.fp_regfile_writes            55597                       # number of floating regfile writes
system.switch_cpus.misc_regfile_reads         2815945                       # number of misc regfile reads
system.switch_cpus.misc_regfile_writes        1348356                       # number of misc regfile writes
system.tol2bus.trans_dist::ReadReq            8408293                       # Transaction distribution
system.tol2bus.trans_dist::ReadResp           8408293                       # Transaction distribution
system.tol2bus.trans_dist::WriteReq               495                       # Transaction distribution
system.tol2bus.trans_dist::WriteResp              495                       # Transaction distribution
system.tol2bus.trans_dist::Writeback           687938                       # Transaction distribution
system.tol2bus.trans_dist::UpgradeReq               1                       # Transaction distribution
system.tol2bus.trans_dist::UpgradeResp              1                       # Transaction distribution
system.tol2bus.trans_dist::ReadExReq           346595                       # Transaction distribution
system.tol2bus.trans_dist::ReadExResp          346595                       # Transaction distribution
system.tol2bus.pkt_count_system.cpu.icache.mem_side::system.l2.cpu_side     12455001                       # Packet count per connected master and slave (bytes)
system.tol2bus.pkt_count_system.cpu.dcache.mem_side::system.l2.cpu_side      5743698                       # Packet count per connected master and slave (bytes)
system.tol2bus.pkt_count::total              18198699                       # Packet count per connected master and slave (bytes)
system.tol2bus.pkt_size_system.cpu.icache.mem_side::system.l2.cpu_side    398559808                       # Cumulative packet size per connected master and slave (bytes)
system.tol2bus.pkt_size_system.cpu.dcache.mem_side::system.l2.cpu_side    205780032                       # Cumulative packet size per connected master and slave (bytes)
system.tol2bus.pkt_size::total              604339840                       # Cumulative packet size per connected master and slave (bytes)
system.tol2bus.snoops                               7                       # Total snoops (count)
system.tol2bus.snoop_fanout::samples          9443322                       # Request fanout histogram
system.tol2bus.snoop_fanout::mean                   1                       # Request fanout histogram
system.tol2bus.snoop_fanout::stdev                  0                       # Request fanout histogram
system.tol2bus.snoop_fanout::underflows             0      0.00%      0.00% # Request fanout histogram
system.tol2bus.snoop_fanout::0                      0      0.00%      0.00% # Request fanout histogram
system.tol2bus.snoop_fanout::1                9443322    100.00%    100.00% # Request fanout histogram
system.tol2bus.snoop_fanout::2                      0      0.00%    100.00% # Request fanout histogram
system.tol2bus.snoop_fanout::overflows              0      0.00%    100.00% # Request fanout histogram
system.tol2bus.snoop_fanout::min_value              1                       # Request fanout histogram
system.tol2bus.snoop_fanout::max_value              1                       # Request fanout histogram
system.tol2bus.snoop_fanout::total            9443322                       # Request fanout histogram
system.tol2bus.reqLayer0.occupancy         5409846500                       # Layer occupancy (ticks)
system.tol2bus.reqLayer0.utilization              1.2                       # Layer utilization (%)
system.tol2bus.respLayer0.occupancy        9348627923                       # Layer occupancy (ticks)
system.tol2bus.respLayer0.utilization             2.1                       # Layer utilization (%)
system.tol2bus.respLayer1.occupancy        3867476721                       # Layer occupancy (ticks)
system.tol2bus.respLayer1.utilization             0.9                       # Layer utilization (%)
system.tsunami.ethernet.descDMAReads                0                       # Number of descriptors the device read w/ DMA
system.tsunami.ethernet.descDMAWrites               0                       # Number of descriptors the device wrote w/ DMA
system.tsunami.ethernet.descDmaReadBytes            0                       # number of descriptor bytes read w/ DMA
system.tsunami.ethernet.descDmaWriteBytes            0                       # number of descriptor bytes write w/ DMA
system.tsunami.ethernet.postedSwi                   0                       # number of software interrupts posted to CPU
system.tsunami.ethernet.coalescedSwi              nan                       # average number of Swi's coalesced into each post
system.tsunami.ethernet.totalSwi                    0                       # total number of Swi written to ISR
system.tsunami.ethernet.postedRxIdle                0                       # number of rxIdle interrupts posted to CPU
system.tsunami.ethernet.coalescedRxIdle           nan                       # average number of RxIdle's coalesced into each post
system.tsunami.ethernet.totalRxIdle                 0                       # total number of RxIdle written to ISR
system.tsunami.ethernet.postedRxOk                  0                       # number of RxOk interrupts posted to CPU
system.tsunami.ethernet.coalescedRxOk             nan                       # average number of RxOk's coalesced into each post
system.tsunami.ethernet.totalRxOk                   0                       # total number of RxOk written to ISR
system.tsunami.ethernet.postedRxDesc                0                       # number of RxDesc interrupts posted to CPU
system.tsunami.ethernet.coalescedRxDesc           nan                       # average number of RxDesc's coalesced into each post
system.tsunami.ethernet.totalRxDesc                 0                       # total number of RxDesc written to ISR
system.tsunami.ethernet.postedTxOk                  0                       # number of TxOk interrupts posted to CPU
system.tsunami.ethernet.coalescedTxOk             nan                       # average number of TxOk's coalesced into each post
system.tsunami.ethernet.totalTxOk                   0                       # total number of TxOk written to ISR
system.tsunami.ethernet.postedTxIdle                0                       # number of TxIdle interrupts posted to CPU
system.tsunami.ethernet.coalescedTxIdle           nan                       # average number of TxIdle's coalesced into each post
system.tsunami.ethernet.totalTxIdle                 0                       # total number of TxIdle written to ISR
system.tsunami.ethernet.postedTxDesc                0                       # number of TxDesc interrupts posted to CPU
system.tsunami.ethernet.coalescedTxDesc           nan                       # average number of TxDesc's coalesced into each post
system.tsunami.ethernet.totalTxDesc                 0                       # total number of TxDesc written to ISR
system.tsunami.ethernet.postedRxOrn                 0                       # number of RxOrn posted to CPU
system.tsunami.ethernet.coalescedRxOrn            nan                       # average number of RxOrn's coalesced into each post
system.tsunami.ethernet.totalRxOrn                  0                       # total number of RxOrn written to ISR
system.tsunami.ethernet.coalescedTotal            nan                       # average number of interrupts coalesced into each post
system.tsunami.ethernet.postedInterrupts            0                       # number of posts to CPU
system.tsunami.ethernet.droppedPackets              0                       # number of packets dropped
system.switch_cpus.kern.inst.arm                    0                       # number of arm instructions executed
system.switch_cpus.kern.inst.quiesce                0                       # number of quiesce instructions executed
system.switch_cpus.kern.inst.hwrei                  0                       # number of hwrei instructions executed
system.switch_cpus.kern.mode_switch::kernel            0                       # number of protection mode switches
system.switch_cpus.kern.mode_switch::user            0                       # number of protection mode switches
system.switch_cpus.kern.mode_switch::idle            0                       # number of protection mode switches
system.switch_cpus.kern.mode_good::kernel            0                      
system.switch_cpus.kern.mode_good::user             0                      
system.switch_cpus.kern.mode_good::idle             0                      
system.switch_cpus.kern.mode_switch_good::kernel          nan                       # fraction of useful protection mode switches
system.switch_cpus.kern.mode_switch_good::user          nan                       # fraction of useful protection mode switches
system.switch_cpus.kern.mode_switch_good::idle          nan                       # fraction of useful protection mode switches
system.switch_cpus.kern.mode_switch_good::total          nan                       # fraction of useful protection mode switches
system.switch_cpus.kern.mode_ticks::kernel            0                       # number of ticks spent at the given mode
system.switch_cpus.kern.mode_ticks::user            0                       # number of ticks spent at the given mode
system.switch_cpus.kern.mode_ticks::idle            0                       # number of ticks spent at the given mode
system.switch_cpus.kern.swap_context                0                       # number of times the context was actually changed

---------- End Simulation Statistics   ----------
