
---------- Begin Simulation Statistics ----------
sim_seconds                                  0.001253                       # Number of seconds simulated
sim_ticks                                  1253222500                       # Number of ticks simulated
final_tick                               2255693433000                       # Number of ticks from beginning of simulation (restored from checkpoints and never reset)
sim_freq                                 1000000000000                       # Frequency of simulated ticks
host_inst_rate                               29684724                       # Simulator instruction rate (inst/s)
host_op_rate                                 29684650                       # Simulator op (including micro ops) rate (op/s)
host_tick_rate                              379667594                       # Simulator tick rate (ticks/s)
host_mem_usage                                 729108                       # Number of bytes of host memory used
host_seconds                                     3.30                       # Real time elapsed on the host
sim_insts                                    97984118                       # Number of instructions simulated
sim_ops                                      97984118                       # Number of ops (including micro ops) simulated
system.voltage_domain.voltage                       1                       # Voltage in Volts
system.clk_domain.clock                          1000                       # Clock period in ticks
system.mem_ctrls.bytes_read::switch_cpus.inst       454528                       # Number of bytes read from this memory
system.mem_ctrls.bytes_read::switch_cpus.data      1001472                       # Number of bytes read from this memory
system.mem_ctrls.bytes_read::total            1456000                       # Number of bytes read from this memory
system.mem_ctrls.bytes_inst_read::switch_cpus.inst       454528                       # Number of instructions bytes read from this memory
system.mem_ctrls.bytes_inst_read::total        454528                       # Number of instructions bytes read from this memory
system.mem_ctrls.bytes_written::writebacks       607296                       # Number of bytes written to this memory
system.mem_ctrls.bytes_written::total          607296                       # Number of bytes written to this memory
system.mem_ctrls.num_reads::switch_cpus.inst         7102                       # Number of read requests responded to by this memory
system.mem_ctrls.num_reads::switch_cpus.data        15648                       # Number of read requests responded to by this memory
system.mem_ctrls.num_reads::total               22750                       # Number of read requests responded to by this memory
system.mem_ctrls.num_writes::writebacks          9489                       # Number of write requests responded to by this memory
system.mem_ctrls.num_writes::total               9489                       # Number of write requests responded to by this memory
system.mem_ctrls.bw_read::switch_cpus.inst    362687392                       # Total read bandwidth from this memory (bytes/s)
system.mem_ctrls.bw_read::switch_cpus.data    799117475                       # Total read bandwidth from this memory (bytes/s)
system.mem_ctrls.bw_read::total            1161804867                       # Total read bandwidth from this memory (bytes/s)
system.mem_ctrls.bw_inst_read::switch_cpus.inst    362687392                       # Instruction read bandwidth from this memory (bytes/s)
system.mem_ctrls.bw_inst_read::total        362687392                       # Instruction read bandwidth from this memory (bytes/s)
system.mem_ctrls.bw_write::writebacks       484587533                       # Write bandwidth from this memory (bytes/s)
system.mem_ctrls.bw_write::total            484587533                       # Write bandwidth from this memory (bytes/s)
system.mem_ctrls.bw_total::writebacks       484587533                       # Total bandwidth to/from this memory (bytes/s)
system.mem_ctrls.bw_total::switch_cpus.inst    362687392                       # Total bandwidth to/from this memory (bytes/s)
system.mem_ctrls.bw_total::switch_cpus.data    799117475                       # Total bandwidth to/from this memory (bytes/s)
system.mem_ctrls.bw_total::total           1646392400                       # Total bandwidth to/from this memory (bytes/s)
system.mem_ctrls.readReqs                       22750                       # Number of read requests accepted
system.mem_ctrls.writeReqs                       9489                       # Number of write requests accepted
system.mem_ctrls.readBursts                     22750                       # Number of DRAM read bursts, including those serviced by the write queue
system.mem_ctrls.writeBursts                     9489                       # Number of DRAM write bursts, including those merged in the write queue
system.mem_ctrls.bytesReadDRAM                1452480                       # Total number of bytes read from DRAM
system.mem_ctrls.bytesReadWrQ                    3520                       # Total number of bytes read from write queue
system.mem_ctrls.bytesWritten                  605760                       # Total number of bytes written to DRAM
system.mem_ctrls.bytesReadSys                 1456000                       # Total read bytes from the system interface side
system.mem_ctrls.bytesWrittenSys               607296                       # Total written bytes from the system interface side
system.mem_ctrls.servicedByWrQ                     55                       # Number of DRAM read bursts serviced by the write queue
system.mem_ctrls.mergedWrBursts                     2                       # Number of DRAM write bursts merged with an existing one
system.mem_ctrls.neitherReadNorWriteReqs            7                       # Number of requests that are neither read nor write
system.mem_ctrls.perBankRdBursts::0              1481                       # Per bank write bursts
system.mem_ctrls.perBankRdBursts::1              1082                       # Per bank write bursts
system.mem_ctrls.perBankRdBursts::2              1604                       # Per bank write bursts
system.mem_ctrls.perBankRdBursts::3              1460                       # Per bank write bursts
system.mem_ctrls.perBankRdBursts::4              1580                       # Per bank write bursts
system.mem_ctrls.perBankRdBursts::5              1175                       # Per bank write bursts
system.mem_ctrls.perBankRdBursts::6              1516                       # Per bank write bursts
system.mem_ctrls.perBankRdBursts::7              1146                       # Per bank write bursts
system.mem_ctrls.perBankRdBursts::8              1404                       # Per bank write bursts
system.mem_ctrls.perBankRdBursts::9              1459                       # Per bank write bursts
system.mem_ctrls.perBankRdBursts::10             1382                       # Per bank write bursts
system.mem_ctrls.perBankRdBursts::11             1691                       # Per bank write bursts
system.mem_ctrls.perBankRdBursts::12             1297                       # Per bank write bursts
system.mem_ctrls.perBankRdBursts::13             2106                       # Per bank write bursts
system.mem_ctrls.perBankRdBursts::14             1317                       # Per bank write bursts
system.mem_ctrls.perBankRdBursts::15              995                       # Per bank write bursts
system.mem_ctrls.perBankWrBursts::0               548                       # Per bank write bursts
system.mem_ctrls.perBankWrBursts::1               588                       # Per bank write bursts
system.mem_ctrls.perBankWrBursts::2               871                       # Per bank write bursts
system.mem_ctrls.perBankWrBursts::3              1020                       # Per bank write bursts
system.mem_ctrls.perBankWrBursts::4               903                       # Per bank write bursts
system.mem_ctrls.perBankWrBursts::5               642                       # Per bank write bursts
system.mem_ctrls.perBankWrBursts::6               801                       # Per bank write bursts
system.mem_ctrls.perBankWrBursts::7               432                       # Per bank write bursts
system.mem_ctrls.perBankWrBursts::8               406                       # Per bank write bursts
system.mem_ctrls.perBankWrBursts::9               687                       # Per bank write bursts
system.mem_ctrls.perBankWrBursts::10              296                       # Per bank write bursts
system.mem_ctrls.perBankWrBursts::11              429                       # Per bank write bursts
system.mem_ctrls.perBankWrBursts::12              277                       # Per bank write bursts
system.mem_ctrls.perBankWrBursts::13              522                       # Per bank write bursts
system.mem_ctrls.perBankWrBursts::14              532                       # Per bank write bursts
system.mem_ctrls.perBankWrBursts::15              511                       # Per bank write bursts
system.mem_ctrls.numRdRetry                         0                       # Number of times read queue was full causing retry
system.mem_ctrls.numWrRetry                         0                       # Number of times write queue was full causing retry
system.mem_ctrls.totGap                    1253190500                       # Total gap between requests
system.mem_ctrls.readPktSize::0                     0                       # Read request sizes (log2)
system.mem_ctrls.readPktSize::1                     0                       # Read request sizes (log2)
system.mem_ctrls.readPktSize::2                     0                       # Read request sizes (log2)
system.mem_ctrls.readPktSize::3                     0                       # Read request sizes (log2)
system.mem_ctrls.readPktSize::4                     0                       # Read request sizes (log2)
system.mem_ctrls.readPktSize::5                     0                       # Read request sizes (log2)
system.mem_ctrls.readPktSize::6                 22750                       # Read request sizes (log2)
system.mem_ctrls.writePktSize::0                    0                       # Write request sizes (log2)
system.mem_ctrls.writePktSize::1                    0                       # Write request sizes (log2)
system.mem_ctrls.writePktSize::2                    0                       # Write request sizes (log2)
system.mem_ctrls.writePktSize::3                    0                       # Write request sizes (log2)
system.mem_ctrls.writePktSize::4                    0                       # Write request sizes (log2)
system.mem_ctrls.writePktSize::5                    0                       # Write request sizes (log2)
system.mem_ctrls.writePktSize::6                 9489                       # Write request sizes (log2)
system.mem_ctrls.rdQLenPdf::0                   11720                       # What read queue length does an incoming req see
system.mem_ctrls.rdQLenPdf::1                    6117                       # What read queue length does an incoming req see
system.mem_ctrls.rdQLenPdf::2                    3144                       # What read queue length does an incoming req see
system.mem_ctrls.rdQLenPdf::3                    1659                       # What read queue length does an incoming req see
system.mem_ctrls.rdQLenPdf::4                      51                       # What read queue length does an incoming req see
system.mem_ctrls.rdQLenPdf::5                       4                       # What read queue length does an incoming req see
system.mem_ctrls.rdQLenPdf::6                       0                       # What read queue length does an incoming req see
system.mem_ctrls.rdQLenPdf::7                       0                       # What read queue length does an incoming req see
system.mem_ctrls.rdQLenPdf::8                       0                       # What read queue length does an incoming req see
system.mem_ctrls.rdQLenPdf::9                       0                       # What read queue length does an incoming req see
system.mem_ctrls.rdQLenPdf::10                      0                       # What read queue length does an incoming req see
system.mem_ctrls.rdQLenPdf::11                      0                       # What read queue length does an incoming req see
system.mem_ctrls.rdQLenPdf::12                      0                       # What read queue length does an incoming req see
system.mem_ctrls.rdQLenPdf::13                      0                       # What read queue length does an incoming req see
system.mem_ctrls.rdQLenPdf::14                      0                       # What read queue length does an incoming req see
system.mem_ctrls.rdQLenPdf::15                      0                       # What read queue length does an incoming req see
system.mem_ctrls.rdQLenPdf::16                      0                       # What read queue length does an incoming req see
system.mem_ctrls.rdQLenPdf::17                      0                       # What read queue length does an incoming req see
system.mem_ctrls.rdQLenPdf::18                      0                       # What read queue length does an incoming req see
system.mem_ctrls.rdQLenPdf::19                      0                       # What read queue length does an incoming req see
system.mem_ctrls.rdQLenPdf::20                      0                       # What read queue length does an incoming req see
system.mem_ctrls.rdQLenPdf::21                      0                       # What read queue length does an incoming req see
system.mem_ctrls.rdQLenPdf::22                      0                       # What read queue length does an incoming req see
system.mem_ctrls.rdQLenPdf::23                      0                       # What read queue length does an incoming req see
system.mem_ctrls.rdQLenPdf::24                      0                       # What read queue length does an incoming req see
system.mem_ctrls.rdQLenPdf::25                      0                       # What read queue length does an incoming req see
system.mem_ctrls.rdQLenPdf::26                      0                       # What read queue length does an incoming req see
system.mem_ctrls.rdQLenPdf::27                      0                       # What read queue length does an incoming req see
system.mem_ctrls.rdQLenPdf::28                      0                       # What read queue length does an incoming req see
system.mem_ctrls.rdQLenPdf::29                      0                       # What read queue length does an incoming req see
system.mem_ctrls.rdQLenPdf::30                      0                       # What read queue length does an incoming req see
system.mem_ctrls.rdQLenPdf::31                      0                       # What read queue length does an incoming req see
system.mem_ctrls.wrQLenPdf::0                       1                       # What write queue length does an incoming req see
system.mem_ctrls.wrQLenPdf::1                       1                       # What write queue length does an incoming req see
system.mem_ctrls.wrQLenPdf::2                       1                       # What write queue length does an incoming req see
system.mem_ctrls.wrQLenPdf::3                       1                       # What write queue length does an incoming req see
system.mem_ctrls.wrQLenPdf::4                       1                       # What write queue length does an incoming req see
system.mem_ctrls.wrQLenPdf::5                       1                       # What write queue length does an incoming req see
system.mem_ctrls.wrQLenPdf::6                       1                       # What write queue length does an incoming req see
system.mem_ctrls.wrQLenPdf::7                       1                       # What write queue length does an incoming req see
system.mem_ctrls.wrQLenPdf::8                       1                       # What write queue length does an incoming req see
system.mem_ctrls.wrQLenPdf::9                       1                       # What write queue length does an incoming req see
system.mem_ctrls.wrQLenPdf::10                      1                       # What write queue length does an incoming req see
system.mem_ctrls.wrQLenPdf::11                      1                       # What write queue length does an incoming req see
system.mem_ctrls.wrQLenPdf::12                      1                       # What write queue length does an incoming req see
system.mem_ctrls.wrQLenPdf::13                      1                       # What write queue length does an incoming req see
system.mem_ctrls.wrQLenPdf::14                      1                       # What write queue length does an incoming req see
system.mem_ctrls.wrQLenPdf::15                     42                       # What write queue length does an incoming req see
system.mem_ctrls.wrQLenPdf::16                     49                       # What write queue length does an incoming req see
system.mem_ctrls.wrQLenPdf::17                    282                       # What write queue length does an incoming req see
system.mem_ctrls.wrQLenPdf::18                    433                       # What write queue length does an incoming req see
system.mem_ctrls.wrQLenPdf::19                    535                       # What write queue length does an incoming req see
system.mem_ctrls.wrQLenPdf::20                    597                       # What write queue length does an incoming req see
system.mem_ctrls.wrQLenPdf::21                    605                       # What write queue length does an incoming req see
system.mem_ctrls.wrQLenPdf::22                    601                       # What write queue length does an incoming req see
system.mem_ctrls.wrQLenPdf::23                    607                       # What write queue length does an incoming req see
system.mem_ctrls.wrQLenPdf::24                    613                       # What write queue length does an incoming req see
system.mem_ctrls.wrQLenPdf::25                    629                       # What write queue length does an incoming req see
system.mem_ctrls.wrQLenPdf::26                    722                       # What write queue length does an incoming req see
system.mem_ctrls.wrQLenPdf::27                    636                       # What write queue length does an incoming req see
system.mem_ctrls.wrQLenPdf::28                    626                       # What write queue length does an incoming req see
system.mem_ctrls.wrQLenPdf::29                    666                       # What write queue length does an incoming req see
system.mem_ctrls.wrQLenPdf::30                    631                       # What write queue length does an incoming req see
system.mem_ctrls.wrQLenPdf::31                    602                       # What write queue length does an incoming req see
system.mem_ctrls.wrQLenPdf::32                    591                       # What write queue length does an incoming req see
system.mem_ctrls.wrQLenPdf::33                      2                       # What write queue length does an incoming req see
system.mem_ctrls.wrQLenPdf::34                      2                       # What write queue length does an incoming req see
system.mem_ctrls.wrQLenPdf::35                      1                       # What write queue length does an incoming req see
system.mem_ctrls.wrQLenPdf::36                      0                       # What write queue length does an incoming req see
system.mem_ctrls.wrQLenPdf::37                      0                       # What write queue length does an incoming req see
system.mem_ctrls.wrQLenPdf::38                      0                       # What write queue length does an incoming req see
system.mem_ctrls.wrQLenPdf::39                      0                       # What write queue length does an incoming req see
system.mem_ctrls.wrQLenPdf::40                      0                       # What write queue length does an incoming req see
system.mem_ctrls.wrQLenPdf::41                      0                       # What write queue length does an incoming req see
system.mem_ctrls.wrQLenPdf::42                      0                       # What write queue length does an incoming req see
system.mem_ctrls.wrQLenPdf::43                      0                       # What write queue length does an incoming req see
system.mem_ctrls.wrQLenPdf::44                      0                       # What write queue length does an incoming req see
system.mem_ctrls.wrQLenPdf::45                      0                       # What write queue length does an incoming req see
system.mem_ctrls.wrQLenPdf::46                      0                       # What write queue length does an incoming req see
system.mem_ctrls.wrQLenPdf::47                      0                       # What write queue length does an incoming req see
system.mem_ctrls.wrQLenPdf::48                      0                       # What write queue length does an incoming req see
system.mem_ctrls.wrQLenPdf::49                      0                       # What write queue length does an incoming req see
system.mem_ctrls.wrQLenPdf::50                      0                       # What write queue length does an incoming req see
system.mem_ctrls.wrQLenPdf::51                      0                       # What write queue length does an incoming req see
system.mem_ctrls.wrQLenPdf::52                      0                       # What write queue length does an incoming req see
system.mem_ctrls.wrQLenPdf::53                      0                       # What write queue length does an incoming req see
system.mem_ctrls.wrQLenPdf::54                      0                       # What write queue length does an incoming req see
system.mem_ctrls.wrQLenPdf::55                      0                       # What write queue length does an incoming req see
system.mem_ctrls.wrQLenPdf::56                      0                       # What write queue length does an incoming req see
system.mem_ctrls.wrQLenPdf::57                      0                       # What write queue length does an incoming req see
system.mem_ctrls.wrQLenPdf::58                      0                       # What write queue length does an incoming req see
system.mem_ctrls.wrQLenPdf::59                      0                       # What write queue length does an incoming req see
system.mem_ctrls.wrQLenPdf::60                      0                       # What write queue length does an incoming req see
system.mem_ctrls.wrQLenPdf::61                      0                       # What write queue length does an incoming req see
system.mem_ctrls.wrQLenPdf::62                      0                       # What write queue length does an incoming req see
system.mem_ctrls.wrQLenPdf::63                      0                       # What write queue length does an incoming req see
system.mem_ctrls.bytesPerActivate::samples         8061                       # Bytes accessed per row activation
system.mem_ctrls.bytesPerActivate::mean    254.896415                       # Bytes accessed per row activation
system.mem_ctrls.bytesPerActivate::gmean   148.133493                       # Bytes accessed per row activation
system.mem_ctrls.bytesPerActivate::stdev   304.665311                       # Bytes accessed per row activation
system.mem_ctrls.bytesPerActivate::0-127         3736     46.35%     46.35% # Bytes accessed per row activation
system.mem_ctrls.bytesPerActivate::128-255         1957     24.28%     70.62% # Bytes accessed per row activation
system.mem_ctrls.bytesPerActivate::256-383          677      8.40%     79.02% # Bytes accessed per row activation
system.mem_ctrls.bytesPerActivate::384-511          332      4.12%     83.14% # Bytes accessed per row activation
system.mem_ctrls.bytesPerActivate::512-639          217      2.69%     85.83% # Bytes accessed per row activation
system.mem_ctrls.bytesPerActivate::640-767          152      1.89%     87.72% # Bytes accessed per row activation
system.mem_ctrls.bytesPerActivate::768-895          130      1.61%     89.33% # Bytes accessed per row activation
system.mem_ctrls.bytesPerActivate::896-1023           97      1.20%     90.53% # Bytes accessed per row activation
system.mem_ctrls.bytesPerActivate::1024-1151          763      9.47%    100.00% # Bytes accessed per row activation
system.mem_ctrls.bytesPerActivate::total         8061                       # Bytes accessed per row activation
system.mem_ctrls.rdPerTurnAround::samples          585                       # Reads before turning the bus around for writes
system.mem_ctrls.rdPerTurnAround::mean      38.784615                       # Reads before turning the bus around for writes
system.mem_ctrls.rdPerTurnAround::gmean     31.874652                       # Reads before turning the bus around for writes
system.mem_ctrls.rdPerTurnAround::stdev     27.628742                       # Reads before turning the bus around for writes
system.mem_ctrls.rdPerTurnAround::0-15             42      7.18%      7.18% # Reads before turning the bus around for writes
system.mem_ctrls.rdPerTurnAround::16-31           253     43.25%     50.43% # Reads before turning the bus around for writes
system.mem_ctrls.rdPerTurnAround::32-47           130     22.22%     72.65% # Reads before turning the bus around for writes
system.mem_ctrls.rdPerTurnAround::48-63            78     13.33%     85.98% # Reads before turning the bus around for writes
system.mem_ctrls.rdPerTurnAround::64-79            35      5.98%     91.97% # Reads before turning the bus around for writes
system.mem_ctrls.rdPerTurnAround::80-95            22      3.76%     95.73% # Reads before turning the bus around for writes
system.mem_ctrls.rdPerTurnAround::96-111           14      2.39%     98.12% # Reads before turning the bus around for writes
system.mem_ctrls.rdPerTurnAround::112-127            4      0.68%     98.80% # Reads before turning the bus around for writes
system.mem_ctrls.rdPerTurnAround::128-143            2      0.34%     99.15% # Reads before turning the bus around for writes
system.mem_ctrls.rdPerTurnAround::144-159            1      0.17%     99.32% # Reads before turning the bus around for writes
system.mem_ctrls.rdPerTurnAround::160-175            3      0.51%     99.83% # Reads before turning the bus around for writes
system.mem_ctrls.rdPerTurnAround::256-271            1      0.17%    100.00% # Reads before turning the bus around for writes
system.mem_ctrls.rdPerTurnAround::total           585                       # Reads before turning the bus around for writes
system.mem_ctrls.wrPerTurnAround::samples          585                       # Writes before turning the bus around for reads
system.mem_ctrls.wrPerTurnAround::mean      16.179487                       # Writes before turning the bus around for reads
system.mem_ctrls.wrPerTurnAround::gmean     16.169290                       # Writes before turning the bus around for reads
system.mem_ctrls.wrPerTurnAround::stdev      0.597016                       # Writes before turning the bus around for reads
system.mem_ctrls.wrPerTurnAround::16              533     91.11%     91.11% # Writes before turning the bus around for reads
system.mem_ctrls.wrPerTurnAround::17                7      1.20%     92.31% # Writes before turning the bus around for reads
system.mem_ctrls.wrPerTurnAround::18               37      6.32%     98.63% # Writes before turning the bus around for reads
system.mem_ctrls.wrPerTurnAround::19                8      1.37%    100.00% # Writes before turning the bus around for reads
system.mem_ctrls.wrPerTurnAround::total           585                       # Writes before turning the bus around for reads
system.mem_ctrls.totQLat                    415319500                       # Total ticks spent queuing
system.mem_ctrls.totMemAccLat               840850750                       # Total ticks spent from burst creation until serviced by the DRAM
system.mem_ctrls.totBusLat                  113475000                       # Total ticks spent in databus transfers
system.mem_ctrls.avgQLat                     18300.04                       # Average queueing delay per DRAM burst
system.mem_ctrls.avgBusLat                    5000.00                       # Average bus latency per DRAM burst
system.mem_ctrls.avgMemAccLat                37050.04                       # Average memory access latency per DRAM burst
system.mem_ctrls.avgRdBW                      1159.00                       # Average DRAM read bandwidth in MiByte/s
system.mem_ctrls.avgWrBW                       483.36                       # Average achieved write bandwidth in MiByte/s
system.mem_ctrls.avgRdBWSys                   1161.80                       # Average system read bandwidth in MiByte/s
system.mem_ctrls.avgWrBWSys                    484.59                       # Average system write bandwidth in MiByte/s
system.mem_ctrls.peakBW                      12800.00                       # Theoretical peak bandwidth in MiByte/s
system.mem_ctrls.busUtil                        12.83                       # Data bus utilization in percentage
system.mem_ctrls.busUtilRead                     9.05                       # Data bus utilization in percentage for reads
system.mem_ctrls.busUtilWrite                    3.78                       # Data bus utilization in percentage for writes
system.mem_ctrls.avgRdQLen                       1.75                       # Average read queue length when enqueuing
system.mem_ctrls.avgWrQLen                      25.78                       # Average write queue length when enqueuing
system.mem_ctrls.readRowHits                    17108                       # Number of row buffer hits during reads
system.mem_ctrls.writeRowHits                    6975                       # Number of row buffer hits during writes
system.mem_ctrls.readRowHitRate                 75.38                       # Row buffer hit rate for reads
system.mem_ctrls.writeRowHitRate                73.52                       # Row buffer hit rate for writes
system.mem_ctrls.avgGap                      38871.88                       # Average gap between requests
system.mem_ctrls.pageHitRate                    74.83                       # Row buffer hit rate, read and write combined
system.mem_ctrls_0.actEnergy                 30043440                       # Energy for activate commands per rank (pJ)
system.mem_ctrls_0.preEnergy                 16392750                       # Energy for precharge commands per rank (pJ)
system.mem_ctrls_0.readEnergy                85722000                       # Energy for read commands per rank (pJ)
system.mem_ctrls_0.writeEnergy               37285920                       # Energy for write commands per rank (pJ)
system.mem_ctrls_0.refreshEnergy             81369600                       # Energy for refresh commands per rank (pJ)
system.mem_ctrls_0.actBackEnergy            818210205                       # Energy for active background per rank (pJ)
system.mem_ctrls_0.preBackEnergy             29907750                       # Energy for precharge background per rank (pJ)
system.mem_ctrls_0.totalEnergy             1098931665                       # Total energy per rank (pJ)
system.mem_ctrls_0.averagePower            881.925160                       # Core power per rank (mW)
system.mem_ctrls_0.memoryStateTime::IDLE     44883750                       # Time in different power states
system.mem_ctrls_0.memoryStateTime::REF      41600000                       # Time in different power states
system.mem_ctrls_0.memoryStateTime::PRE_PDN            0                       # Time in different power states
system.mem_ctrls_0.memoryStateTime::ACT    1159590000                       # Time in different power states
system.mem_ctrls_0.memoryStateTime::ACT_PDN            0                       # Time in different power states
system.mem_ctrls_1.actEnergy                 30504600                       # Energy for activate commands per rank (pJ)
system.mem_ctrls_1.preEnergy                 16644375                       # Energy for precharge commands per rank (pJ)
system.mem_ctrls_1.readEnergy                90464400                       # Energy for read commands per rank (pJ)
system.mem_ctrls_1.writeEnergy               23632560                       # Energy for write commands per rank (pJ)
system.mem_ctrls_1.refreshEnergy             81369600                       # Energy for refresh commands per rank (pJ)
system.mem_ctrls_1.actBackEnergy            827274060                       # Energy for active background per rank (pJ)
system.mem_ctrls_1.preBackEnergy             21957000                       # Energy for precharge background per rank (pJ)
system.mem_ctrls_1.totalEnergy             1091846595                       # Total energy per rank (pJ)
system.mem_ctrls_1.averagePower            876.239182                       # Core power per rank (mW)
system.mem_ctrls_1.memoryStateTime::IDLE     31650250                       # Time in different power states
system.mem_ctrls_1.memoryStateTime::REF      41600000                       # Time in different power states
system.mem_ctrls_1.memoryStateTime::PRE_PDN            0                       # Time in different power states
system.mem_ctrls_1.memoryStateTime::ACT    1172978750                       # Time in different power states
system.mem_ctrls_1.memoryStateTime::ACT_PDN            0                       # Time in different power states
system.cpu_voltage_domain.voltage                   1                       # Voltage in Volts
system.cpu_clk_domain.clock                       500                       # Clock period in ticks
system.cpu.dtb.fetch_hits                           0                       # ITB hits
system.cpu.dtb.fetch_misses                         0                       # ITB misses
system.cpu.dtb.fetch_acv                            0                       # ITB acv
system.cpu.dtb.fetch_accesses                       0                       # ITB accesses
system.cpu.dtb.read_hits                            0                       # DTB read hits
system.cpu.dtb.read_misses                          0                       # DTB read misses
system.cpu.dtb.read_acv                             0                       # DTB read access violations
system.cpu.dtb.read_accesses                        0                       # DTB read accesses
system.cpu.dtb.write_hits                           0                       # DTB write hits
system.cpu.dtb.write_misses                         0                       # DTB write misses
system.cpu.dtb.write_acv                            0                       # DTB write access violations
system.cpu.dtb.write_accesses                       0                       # DTB write accesses
system.cpu.dtb.data_hits                            0                       # DTB hits
system.cpu.dtb.data_misses                          0                       # DTB misses
system.cpu.dtb.data_acv                             0                       # DTB access violations
system.cpu.dtb.data_accesses                        0                       # DTB accesses
system.cpu.itb.fetch_hits                           0                       # ITB hits
system.cpu.itb.fetch_misses                         0                       # ITB misses
system.cpu.itb.fetch_acv                            0                       # ITB acv
system.cpu.itb.fetch_accesses                       0                       # ITB accesses
system.cpu.itb.read_hits                            0                       # DTB read hits
system.cpu.itb.read_misses                          0                       # DTB read misses
system.cpu.itb.read_acv                             0                       # DTB read access violations
system.cpu.itb.read_accesses                        0                       # DTB read accesses
system.cpu.itb.write_hits                           0                       # DTB write hits
system.cpu.itb.write_misses                         0                       # DTB write misses
system.cpu.itb.write_acv                            0                       # DTB write access violations
system.cpu.itb.write_accesses                       0                       # DTB write accesses
system.cpu.itb.data_hits                            0                       # DTB hits
system.cpu.itb.data_misses                          0                       # DTB misses
system.cpu.itb.data_acv                             0                       # DTB access violations
system.cpu.itb.data_accesses                        0                       # DTB accesses
system.cpu.numCycles                                0                       # number of cpu cycles simulated
system.cpu.numWorkItemsStarted                      0                       # number of work items this cpu started
system.cpu.numWorkItemsCompleted                    0                       # number of work items this cpu completed
system.cpu.committedInsts                           0                       # Number of instructions committed
system.cpu.committedOps                             0                       # Number of ops (including micro ops) committed
system.cpu.num_int_alu_accesses                     0                       # Number of integer alu accesses
system.cpu.num_fp_alu_accesses                      0                       # Number of float alu accesses
system.cpu.num_func_calls                           0                       # number of times a function call or return occured
system.cpu.num_conditional_control_insts            0                       # number of instructions that are conditional controls
system.cpu.num_int_insts                            0                       # number of integer instructions
system.cpu.num_fp_insts                             0                       # number of float instructions
system.cpu.num_int_register_reads                   0                       # number of times the integer registers were read
system.cpu.num_int_register_writes                  0                       # number of times the integer registers were written
system.cpu.num_fp_register_reads                    0                       # number of times the floating registers were read
system.cpu.num_fp_register_writes                   0                       # number of times the floating registers were written
system.cpu.num_mem_refs                             0                       # number of memory refs
system.cpu.num_load_insts                           0                       # Number of load instructions
system.cpu.num_store_insts                          0                       # Number of store instructions
system.cpu.num_idle_cycles                          0                       # Number of idle cycles
system.cpu.num_busy_cycles                          0                       # Number of busy cycles
system.cpu.not_idle_fraction                        1                       # Percentage of non-idle cycles
system.cpu.idle_fraction                            0                       # Percentage of idle cycles
system.cpu.op_class::No_OpClass                     0                       # Class of executed instruction
system.cpu.op_class::IntAlu                         0                       # Class of executed instruction
system.cpu.op_class::IntMult                        0                       # Class of executed instruction
system.cpu.op_class::IntDiv                         0                       # Class of executed instruction
system.cpu.op_class::FloatAdd                       0                       # Class of executed instruction
system.cpu.op_class::FloatCmp                       0                       # Class of executed instruction
system.cpu.op_class::FloatCvt                       0                       # Class of executed instruction
system.cpu.op_class::FloatMult                      0                       # Class of executed instruction
system.cpu.op_class::FloatDiv                       0                       # Class of executed instruction
system.cpu.op_class::FloatSqrt                      0                       # Class of executed instruction
system.cpu.op_class::SimdAdd                        0                       # Class of executed instruction
system.cpu.op_class::SimdAddAcc                     0                       # Class of executed instruction
system.cpu.op_class::SimdAlu                        0                       # Class of executed instruction
system.cpu.op_class::SimdCmp                        0                       # Class of executed instruction
system.cpu.op_class::SimdCvt                        0                       # Class of executed instruction
system.cpu.op_class::SimdMisc                       0                       # Class of executed instruction
system.cpu.op_class::SimdMult                       0                       # Class of executed instruction
system.cpu.op_class::SimdMultAcc                    0                       # Class of executed instruction
system.cpu.op_class::SimdShift                      0                       # Class of executed instruction
system.cpu.op_class::SimdShiftAcc                   0                       # Class of executed instruction
system.cpu.op_class::SimdSqrt                       0                       # Class of executed instruction
system.cpu.op_class::SimdFloatAdd                   0                       # Class of executed instruction
system.cpu.op_class::SimdFloatAlu                   0                       # Class of executed instruction
system.cpu.op_class::SimdFloatCmp                   0                       # Class of executed instruction
system.cpu.op_class::SimdFloatCvt                   0                       # Class of executed instruction
system.cpu.op_class::SimdFloatDiv                   0                       # Class of executed instruction
system.cpu.op_class::SimdFloatMisc                  0                       # Class of executed instruction
system.cpu.op_class::SimdFloatMult                  0                       # Class of executed instruction
system.cpu.op_class::SimdFloatMultAcc               0                       # Class of executed instruction
system.cpu.op_class::SimdFloatSqrt                  0                       # Class of executed instruction
system.cpu.op_class::MemRead                        0                       # Class of executed instruction
system.cpu.op_class::MemWrite                       0                       # Class of executed instruction
system.cpu.op_class::IprAccess                      0                       # Class of executed instruction
system.cpu.op_class::InstPrefetch                   0                       # Class of executed instruction
system.cpu.op_class::total                          0                       # Class of executed instruction
system.cpu.kern.inst.arm                            0                       # number of arm instructions executed
system.cpu.kern.inst.quiesce                        0                       # number of quiesce instructions executed
system.cpu.kern.inst.hwrei                       2781                       # number of hwrei instructions executed
system.cpu.kern.ipl_count::0                      635     49.15%     49.15% # number of times we switched to this ipl
system.cpu.kern.ipl_count::22                       1      0.08%     49.23% # number of times we switched to this ipl
system.cpu.kern.ipl_count::31                     656     50.77%    100.00% # number of times we switched to this ipl
system.cpu.kern.ipl_count::total                 1292                       # number of times we switched to this ipl
system.cpu.kern.ipl_good::0                       633     49.96%     49.96% # number of times we switched to this ipl from a different ipl
system.cpu.kern.ipl_good::22                        1      0.08%     50.04% # number of times we switched to this ipl from a different ipl
system.cpu.kern.ipl_good::31                      633     49.96%    100.00% # number of times we switched to this ipl from a different ipl
system.cpu.kern.ipl_good::total                  1267                       # number of times we switched to this ipl from a different ipl
system.cpu.kern.ipl_ticks::0               1142066500     91.26%     91.26% # number of cycles we spent at this ipl
system.cpu.kern.ipl_ticks::22                 1535000      0.12%     91.39% # number of cycles we spent at this ipl
system.cpu.kern.ipl_ticks::31               107787000      8.61%    100.00% # number of cycles we spent at this ipl
system.cpu.kern.ipl_ticks::total           1251388500                       # number of cycles we spent at this ipl
system.cpu.kern.ipl_used::0                  0.996850                       # fraction of swpipl calls that actually changed the ipl
system.cpu.kern.ipl_used::22                        1                       # fraction of swpipl calls that actually changed the ipl
system.cpu.kern.ipl_used::31                 0.964939                       # fraction of swpipl calls that actually changed the ipl
system.cpu.kern.ipl_used::total              0.980650                       # fraction of swpipl calls that actually changed the ipl
system.cpu.kern.syscall::2                          1      5.56%      5.56% # number of syscalls executed
system.cpu.kern.syscall::3                          2     11.11%     16.67% # number of syscalls executed
system.cpu.kern.syscall::6                          2     11.11%     27.78% # number of syscalls executed
system.cpu.kern.syscall::17                         1      5.56%     33.33% # number of syscalls executed
system.cpu.kern.syscall::19                         1      5.56%     38.89% # number of syscalls executed
system.cpu.kern.syscall::33                         1      5.56%     44.44% # number of syscalls executed
system.cpu.kern.syscall::45                         3     16.67%     61.11% # number of syscalls executed
system.cpu.kern.syscall::48                         1      5.56%     66.67% # number of syscalls executed
system.cpu.kern.syscall::59                         1      5.56%     72.22% # number of syscalls executed
system.cpu.kern.syscall::71                         4     22.22%     94.44% # number of syscalls executed
system.cpu.kern.syscall::74                         1      5.56%    100.00% # number of syscalls executed
system.cpu.kern.syscall::total                     18                       # number of syscalls executed
system.cpu.kern.callpal::swpctx                   118      8.10%      8.10% # number of callpals executed
system.cpu.kern.callpal::tbi                        6      0.41%      8.51% # number of callpals executed
system.cpu.kern.callpal::swpipl                  1107     75.98%     84.49% # number of callpals executed
system.cpu.kern.callpal::rdps                       3      0.21%     84.69% # number of callpals executed
system.cpu.kern.callpal::wrusp                      1      0.07%     84.76% # number of callpals executed
system.cpu.kern.callpal::rdusp                      1      0.07%     84.83% # number of callpals executed
system.cpu.kern.callpal::rti                      184     12.63%     97.46% # number of callpals executed
system.cpu.kern.callpal::callsys                   33      2.26%     99.73% # number of callpals executed
system.cpu.kern.callpal::imb                        4      0.27%    100.00% # number of callpals executed
system.cpu.kern.callpal::total                   1457                       # number of callpals executed
system.cpu.kern.mode_switch::kernel               302                       # number of protection mode switches
system.cpu.kern.mode_switch::user                 181                       # number of protection mode switches
system.cpu.kern.mode_switch::idle                   0                       # number of protection mode switches
system.cpu.kern.mode_good::kernel                 181                      
system.cpu.kern.mode_good::user                   181                      
system.cpu.kern.mode_good::idle                     0                      
system.cpu.kern.mode_switch_good::kernel     0.599338                       # fraction of useful protection mode switches
system.cpu.kern.mode_switch_good::user              1                       # fraction of useful protection mode switches
system.cpu.kern.mode_switch_good::idle            nan                       # fraction of useful protection mode switches
system.cpu.kern.mode_switch_good::total      0.749482                       # fraction of useful protection mode switches
system.cpu.kern.mode_ticks::kernel          880464500     70.36%     70.36% # number of ticks spent at the given mode
system.cpu.kern.mode_ticks::user            370917000     29.64%    100.00% # number of ticks spent at the given mode
system.cpu.kern.mode_ticks::idle                    0      0.00%    100.00% # number of ticks spent at the given mode
system.cpu.kern.swap_context                      118                       # number of times the context was actually changed
system.cpu.dcache.tags.replacements             18269                       # number of replacements
system.cpu.dcache.tags.tagsinuse                  512                       # Cycle average of tags in use
system.cpu.dcache.tags.total_refs              200449                       # Total number of references to valid blocks.
system.cpu.dcache.tags.sampled_refs             18269                       # Sample count of references to valid blocks.
system.cpu.dcache.tags.avg_refs             10.972084                       # Average number of references to valid blocks.
system.cpu.dcache.tags.warmup_cycle                 0                       # Cycle when the warmup percentage was hit.
system.cpu.dcache.tags.occ_blocks::cpu.data    24.420246                       # Average occupied blocks per requestor
system.cpu.dcache.tags.occ_blocks::switch_cpus.data   487.579754                       # Average occupied blocks per requestor
system.cpu.dcache.tags.occ_percent::cpu.data     0.047696                       # Average percentage of cache occupancy
system.cpu.dcache.tags.occ_percent::switch_cpus.data     0.952304                       # Average percentage of cache occupancy
system.cpu.dcache.tags.occ_percent::total            1                       # Average percentage of cache occupancy
system.cpu.dcache.tags.occ_task_id_blocks::1024          512                       # Occupied blocks per task id
system.cpu.dcache.tags.age_task_id_blocks_1024::0           91                       # Occupied blocks per task id
system.cpu.dcache.tags.age_task_id_blocks_1024::1          363                       # Occupied blocks per task id
system.cpu.dcache.tags.age_task_id_blocks_1024::2           58                       # Occupied blocks per task id
system.cpu.dcache.tags.occ_task_id_percent::1024            1                       # Percentage of cache occupancy per task id
system.cpu.dcache.tags.tag_accesses           1187873                       # Number of tag accesses
system.cpu.dcache.tags.data_accesses          1187873                       # Number of data accesses
system.cpu.dcache.ReadReq_hits::switch_cpus.data       134311                       # number of ReadReq hits
system.cpu.dcache.ReadReq_hits::total          134311                       # number of ReadReq hits
system.cpu.dcache.WriteReq_hits::switch_cpus.data        58772                       # number of WriteReq hits
system.cpu.dcache.WriteReq_hits::total          58772                       # number of WriteReq hits
system.cpu.dcache.LoadLockedReq_hits::switch_cpus.data         2223                       # number of LoadLockedReq hits
system.cpu.dcache.LoadLockedReq_hits::total         2223                       # number of LoadLockedReq hits
system.cpu.dcache.StoreCondReq_hits::switch_cpus.data         2376                       # number of StoreCondReq hits
system.cpu.dcache.StoreCondReq_hits::total         2376                       # number of StoreCondReq hits
system.cpu.dcache.demand_hits::switch_cpus.data       193083                       # number of demand (read+write) hits
system.cpu.dcache.demand_hits::total           193083                       # number of demand (read+write) hits
system.cpu.dcache.overall_hits::switch_cpus.data       193083                       # number of overall hits
system.cpu.dcache.overall_hits::total          193083                       # number of overall hits
system.cpu.dcache.ReadReq_misses::switch_cpus.data        26855                       # number of ReadReq misses
system.cpu.dcache.ReadReq_misses::total         26855                       # number of ReadReq misses
system.cpu.dcache.WriteReq_misses::switch_cpus.data        67465                       # number of WriteReq misses
system.cpu.dcache.WriteReq_misses::total        67465                       # number of WriteReq misses
system.cpu.dcache.LoadLockedReq_misses::switch_cpus.data          397                       # number of LoadLockedReq misses
system.cpu.dcache.LoadLockedReq_misses::total          397                       # number of LoadLockedReq misses
system.cpu.dcache.StoreCondReq_misses::switch_cpus.data            2                       # number of StoreCondReq misses
system.cpu.dcache.StoreCondReq_misses::total            2                       # number of StoreCondReq misses
system.cpu.dcache.demand_misses::switch_cpus.data        94320                       # number of demand (read+write) misses
system.cpu.dcache.demand_misses::total          94320                       # number of demand (read+write) misses
system.cpu.dcache.overall_misses::switch_cpus.data        94320                       # number of overall misses
system.cpu.dcache.overall_misses::total         94320                       # number of overall misses
system.cpu.dcache.ReadReq_miss_latency::switch_cpus.data   1662127503                       # number of ReadReq miss cycles
system.cpu.dcache.ReadReq_miss_latency::total   1662127503                       # number of ReadReq miss cycles
system.cpu.dcache.WriteReq_miss_latency::switch_cpus.data   5029014195                       # number of WriteReq miss cycles
system.cpu.dcache.WriteReq_miss_latency::total   5029014195                       # number of WriteReq miss cycles
system.cpu.dcache.LoadLockedReq_miss_latency::switch_cpus.data     28036000                       # number of LoadLockedReq miss cycles
system.cpu.dcache.LoadLockedReq_miss_latency::total     28036000                       # number of LoadLockedReq miss cycles
system.cpu.dcache.StoreCondReq_miss_latency::switch_cpus.data        47001                       # number of StoreCondReq miss cycles
system.cpu.dcache.StoreCondReq_miss_latency::total        47001                       # number of StoreCondReq miss cycles
system.cpu.dcache.demand_miss_latency::switch_cpus.data   6691141698                       # number of demand (read+write) miss cycles
system.cpu.dcache.demand_miss_latency::total   6691141698                       # number of demand (read+write) miss cycles
system.cpu.dcache.overall_miss_latency::switch_cpus.data   6691141698                       # number of overall miss cycles
system.cpu.dcache.overall_miss_latency::total   6691141698                       # number of overall miss cycles
system.cpu.dcache.ReadReq_accesses::switch_cpus.data       161166                       # number of ReadReq accesses(hits+misses)
system.cpu.dcache.ReadReq_accesses::total       161166                       # number of ReadReq accesses(hits+misses)
system.cpu.dcache.WriteReq_accesses::switch_cpus.data       126237                       # number of WriteReq accesses(hits+misses)
system.cpu.dcache.WriteReq_accesses::total       126237                       # number of WriteReq accesses(hits+misses)
system.cpu.dcache.LoadLockedReq_accesses::switch_cpus.data         2620                       # number of LoadLockedReq accesses(hits+misses)
system.cpu.dcache.LoadLockedReq_accesses::total         2620                       # number of LoadLockedReq accesses(hits+misses)
system.cpu.dcache.StoreCondReq_accesses::switch_cpus.data         2378                       # number of StoreCondReq accesses(hits+misses)
system.cpu.dcache.StoreCondReq_accesses::total         2378                       # number of StoreCondReq accesses(hits+misses)
system.cpu.dcache.demand_accesses::switch_cpus.data       287403                       # number of demand (read+write) accesses
system.cpu.dcache.demand_accesses::total       287403                       # number of demand (read+write) accesses
system.cpu.dcache.overall_accesses::switch_cpus.data       287403                       # number of overall (read+write) accesses
system.cpu.dcache.overall_accesses::total       287403                       # number of overall (read+write) accesses
system.cpu.dcache.ReadReq_miss_rate::switch_cpus.data     0.166629                       # miss rate for ReadReq accesses
system.cpu.dcache.ReadReq_miss_rate::total     0.166629                       # miss rate for ReadReq accesses
system.cpu.dcache.WriteReq_miss_rate::switch_cpus.data     0.534431                       # miss rate for WriteReq accesses
system.cpu.dcache.WriteReq_miss_rate::total     0.534431                       # miss rate for WriteReq accesses
system.cpu.dcache.LoadLockedReq_miss_rate::switch_cpus.data     0.151527                       # miss rate for LoadLockedReq accesses
system.cpu.dcache.LoadLockedReq_miss_rate::total     0.151527                       # miss rate for LoadLockedReq accesses
system.cpu.dcache.StoreCondReq_miss_rate::switch_cpus.data     0.000841                       # miss rate for StoreCondReq accesses
system.cpu.dcache.StoreCondReq_miss_rate::total     0.000841                       # miss rate for StoreCondReq accesses
system.cpu.dcache.demand_miss_rate::switch_cpus.data     0.328180                       # miss rate for demand accesses
system.cpu.dcache.demand_miss_rate::total     0.328180                       # miss rate for demand accesses
system.cpu.dcache.overall_miss_rate::switch_cpus.data     0.328180                       # miss rate for overall accesses
system.cpu.dcache.overall_miss_rate::total     0.328180                       # miss rate for overall accesses
system.cpu.dcache.ReadReq_avg_miss_latency::switch_cpus.data 61892.664420                       # average ReadReq miss latency
system.cpu.dcache.ReadReq_avg_miss_latency::total 61892.664420                       # average ReadReq miss latency
system.cpu.dcache.WriteReq_avg_miss_latency::switch_cpus.data 74542.565701                       # average WriteReq miss latency
system.cpu.dcache.WriteReq_avg_miss_latency::total 74542.565701                       # average WriteReq miss latency
system.cpu.dcache.LoadLockedReq_avg_miss_latency::switch_cpus.data 70619.647355                       # average LoadLockedReq miss latency
system.cpu.dcache.LoadLockedReq_avg_miss_latency::total 70619.647355                       # average LoadLockedReq miss latency
system.cpu.dcache.StoreCondReq_avg_miss_latency::switch_cpus.data 23500.500000                       # average StoreCondReq miss latency
system.cpu.dcache.StoreCondReq_avg_miss_latency::total 23500.500000                       # average StoreCondReq miss latency
system.cpu.dcache.demand_avg_miss_latency::switch_cpus.data 70940.857697                       # average overall miss latency
system.cpu.dcache.demand_avg_miss_latency::total 70940.857697                       # average overall miss latency
system.cpu.dcache.overall_avg_miss_latency::switch_cpus.data 70940.857697                       # average overall miss latency
system.cpu.dcache.overall_avg_miss_latency::total 70940.857697                       # average overall miss latency
system.cpu.dcache.blocked_cycles::no_mshrs       394360                       # number of cycles access was blocked
system.cpu.dcache.blocked_cycles::no_targets            0                       # number of cycles access was blocked
system.cpu.dcache.blocked::no_mshrs              7470                       # number of cycles access was blocked
system.cpu.dcache.blocked::no_targets               0                       # number of cycles access was blocked
system.cpu.dcache.avg_blocked_cycles::no_mshrs    52.792503                       # average number of cycles each access was blocked
system.cpu.dcache.avg_blocked_cycles::no_targets          nan                       # average number of cycles each access was blocked
system.cpu.dcache.fast_writes                       0                       # number of fast writes performed
system.cpu.dcache.cache_copies                      0                       # number of cache copies performed
system.cpu.dcache.writebacks::writebacks        10967                       # number of writebacks
system.cpu.dcache.writebacks::total             10967                       # number of writebacks
system.cpu.dcache.ReadReq_mshr_hits::switch_cpus.data        17888                       # number of ReadReq MSHR hits
system.cpu.dcache.ReadReq_mshr_hits::total        17888                       # number of ReadReq MSHR hits
system.cpu.dcache.WriteReq_mshr_hits::switch_cpus.data        58370                       # number of WriteReq MSHR hits
system.cpu.dcache.WriteReq_mshr_hits::total        58370                       # number of WriteReq MSHR hits
system.cpu.dcache.LoadLockedReq_mshr_hits::switch_cpus.data          177                       # number of LoadLockedReq MSHR hits
system.cpu.dcache.LoadLockedReq_mshr_hits::total          177                       # number of LoadLockedReq MSHR hits
system.cpu.dcache.demand_mshr_hits::switch_cpus.data        76258                       # number of demand (read+write) MSHR hits
system.cpu.dcache.demand_mshr_hits::total        76258                       # number of demand (read+write) MSHR hits
system.cpu.dcache.overall_mshr_hits::switch_cpus.data        76258                       # number of overall MSHR hits
system.cpu.dcache.overall_mshr_hits::total        76258                       # number of overall MSHR hits
system.cpu.dcache.ReadReq_mshr_misses::switch_cpus.data         8967                       # number of ReadReq MSHR misses
system.cpu.dcache.ReadReq_mshr_misses::total         8967                       # number of ReadReq MSHR misses
system.cpu.dcache.WriteReq_mshr_misses::switch_cpus.data         9095                       # number of WriteReq MSHR misses
system.cpu.dcache.WriteReq_mshr_misses::total         9095                       # number of WriteReq MSHR misses
system.cpu.dcache.LoadLockedReq_mshr_misses::switch_cpus.data          220                       # number of LoadLockedReq MSHR misses
system.cpu.dcache.LoadLockedReq_mshr_misses::total          220                       # number of LoadLockedReq MSHR misses
system.cpu.dcache.StoreCondReq_mshr_misses::switch_cpus.data            2                       # number of StoreCondReq MSHR misses
system.cpu.dcache.StoreCondReq_mshr_misses::total            2                       # number of StoreCondReq MSHR misses
system.cpu.dcache.demand_mshr_misses::switch_cpus.data        18062                       # number of demand (read+write) MSHR misses
system.cpu.dcache.demand_mshr_misses::total        18062                       # number of demand (read+write) MSHR misses
system.cpu.dcache.overall_mshr_misses::switch_cpus.data        18062                       # number of overall MSHR misses
system.cpu.dcache.overall_mshr_misses::total        18062                       # number of overall MSHR misses
system.cpu.dcache.WriteReq_mshr_uncacheable::switch_cpus.data            1                       # number of WriteReq MSHR uncacheable
system.cpu.dcache.WriteReq_mshr_uncacheable::total            1                       # number of WriteReq MSHR uncacheable
system.cpu.dcache.overall_mshr_uncacheable_misses::switch_cpus.data            1                       # number of overall MSHR uncacheable misses
system.cpu.dcache.overall_mshr_uncacheable_misses::total            1                       # number of overall MSHR uncacheable misses
system.cpu.dcache.ReadReq_mshr_miss_latency::switch_cpus.data    647061250                       # number of ReadReq MSHR miss cycles
system.cpu.dcache.ReadReq_mshr_miss_latency::total    647061250                       # number of ReadReq MSHR miss cycles
system.cpu.dcache.WriteReq_mshr_miss_latency::switch_cpus.data    779536777                       # number of WriteReq MSHR miss cycles
system.cpu.dcache.WriteReq_mshr_miss_latency::total    779536777                       # number of WriteReq MSHR miss cycles
system.cpu.dcache.LoadLockedReq_mshr_miss_latency::switch_cpus.data     14954750                       # number of LoadLockedReq MSHR miss cycles
system.cpu.dcache.LoadLockedReq_mshr_miss_latency::total     14954750                       # number of LoadLockedReq MSHR miss cycles
system.cpu.dcache.StoreCondReq_mshr_miss_latency::switch_cpus.data        43999                       # number of StoreCondReq MSHR miss cycles
system.cpu.dcache.StoreCondReq_mshr_miss_latency::total        43999                       # number of StoreCondReq MSHR miss cycles
system.cpu.dcache.demand_mshr_miss_latency::switch_cpus.data   1426598027                       # number of demand (read+write) MSHR miss cycles
system.cpu.dcache.demand_mshr_miss_latency::total   1426598027                       # number of demand (read+write) MSHR miss cycles
system.cpu.dcache.overall_mshr_miss_latency::switch_cpus.data   1426598027                       # number of overall MSHR miss cycles
system.cpu.dcache.overall_mshr_miss_latency::total   1426598027                       # number of overall MSHR miss cycles
system.cpu.dcache.WriteReq_mshr_uncacheable_latency::switch_cpus.data       223500                       # number of WriteReq MSHR uncacheable cycles
system.cpu.dcache.WriteReq_mshr_uncacheable_latency::total       223500                       # number of WriteReq MSHR uncacheable cycles
system.cpu.dcache.overall_mshr_uncacheable_latency::switch_cpus.data       223500                       # number of overall MSHR uncacheable cycles
system.cpu.dcache.overall_mshr_uncacheable_latency::total       223500                       # number of overall MSHR uncacheable cycles
system.cpu.dcache.ReadReq_mshr_miss_rate::switch_cpus.data     0.055638                       # mshr miss rate for ReadReq accesses
system.cpu.dcache.ReadReq_mshr_miss_rate::total     0.055638                       # mshr miss rate for ReadReq accesses
system.cpu.dcache.WriteReq_mshr_miss_rate::switch_cpus.data     0.072047                       # mshr miss rate for WriteReq accesses
system.cpu.dcache.WriteReq_mshr_miss_rate::total     0.072047                       # mshr miss rate for WriteReq accesses
system.cpu.dcache.LoadLockedReq_mshr_miss_rate::switch_cpus.data     0.083969                       # mshr miss rate for LoadLockedReq accesses
system.cpu.dcache.LoadLockedReq_mshr_miss_rate::total     0.083969                       # mshr miss rate for LoadLockedReq accesses
system.cpu.dcache.StoreCondReq_mshr_miss_rate::switch_cpus.data     0.000841                       # mshr miss rate for StoreCondReq accesses
system.cpu.dcache.StoreCondReq_mshr_miss_rate::total     0.000841                       # mshr miss rate for StoreCondReq accesses
system.cpu.dcache.demand_mshr_miss_rate::switch_cpus.data     0.062846                       # mshr miss rate for demand accesses
system.cpu.dcache.demand_mshr_miss_rate::total     0.062846                       # mshr miss rate for demand accesses
system.cpu.dcache.overall_mshr_miss_rate::switch_cpus.data     0.062846                       # mshr miss rate for overall accesses
system.cpu.dcache.overall_mshr_miss_rate::total     0.062846                       # mshr miss rate for overall accesses
system.cpu.dcache.ReadReq_avg_mshr_miss_latency::switch_cpus.data 72160.282146                       # average ReadReq mshr miss latency
system.cpu.dcache.ReadReq_avg_mshr_miss_latency::total 72160.282146                       # average ReadReq mshr miss latency
system.cpu.dcache.WriteReq_avg_mshr_miss_latency::switch_cpus.data 85710.475756                       # average WriteReq mshr miss latency
system.cpu.dcache.WriteReq_avg_mshr_miss_latency::total 85710.475756                       # average WriteReq mshr miss latency
system.cpu.dcache.LoadLockedReq_avg_mshr_miss_latency::switch_cpus.data 67976.136364                       # average LoadLockedReq mshr miss latency
system.cpu.dcache.LoadLockedReq_avg_mshr_miss_latency::total 67976.136364                       # average LoadLockedReq mshr miss latency
system.cpu.dcache.StoreCondReq_avg_mshr_miss_latency::switch_cpus.data 21999.500000                       # average StoreCondReq mshr miss latency
system.cpu.dcache.StoreCondReq_avg_mshr_miss_latency::total 21999.500000                       # average StoreCondReq mshr miss latency
system.cpu.dcache.demand_avg_mshr_miss_latency::switch_cpus.data 78983.392039                       # average overall mshr miss latency
system.cpu.dcache.demand_avg_mshr_miss_latency::total 78983.392039                       # average overall mshr miss latency
system.cpu.dcache.overall_avg_mshr_miss_latency::switch_cpus.data 78983.392039                       # average overall mshr miss latency
system.cpu.dcache.overall_avg_mshr_miss_latency::total 78983.392039                       # average overall mshr miss latency
system.cpu.dcache.WriteReq_avg_mshr_uncacheable_latency::switch_cpus.data       223500                       # average WriteReq mshr uncacheable latency
system.cpu.dcache.WriteReq_avg_mshr_uncacheable_latency::total       223500                       # average WriteReq mshr uncacheable latency
system.cpu.dcache.overall_avg_mshr_uncacheable_latency::switch_cpus.data       223500                       # average overall mshr uncacheable latency
system.cpu.dcache.overall_avg_mshr_uncacheable_latency::total       223500                       # average overall mshr uncacheable latency
system.cpu.dcache.no_allocate_misses                0                       # Number of misses that were no-allocate
system.cpu.icache.tags.replacements             10420                       # number of replacements
system.cpu.icache.tags.tagsinuse           511.729371                       # Cycle average of tags in use
system.cpu.icache.tags.total_refs              363419                       # Total number of references to valid blocks.
system.cpu.icache.tags.sampled_refs             10420                       # Sample count of references to valid blocks.
system.cpu.icache.tags.avg_refs             34.877063                       # Average number of references to valid blocks.
system.cpu.icache.tags.warmup_cycle                 0                       # Cycle when the warmup percentage was hit.
system.cpu.icache.tags.occ_blocks::cpu.inst    21.056254                       # Average occupied blocks per requestor
system.cpu.icache.tags.occ_blocks::switch_cpus.inst   490.673118                       # Average occupied blocks per requestor
system.cpu.icache.tags.occ_percent::cpu.inst     0.041125                       # Average percentage of cache occupancy
system.cpu.icache.tags.occ_percent::switch_cpus.inst     0.958346                       # Average percentage of cache occupancy
system.cpu.icache.tags.occ_percent::total     0.999471                       # Average percentage of cache occupancy
system.cpu.icache.tags.occ_task_id_blocks::1024          511                       # Occupied blocks per task id
system.cpu.icache.tags.age_task_id_blocks_1024::0           59                       # Occupied blocks per task id
system.cpu.icache.tags.age_task_id_blocks_1024::1           22                       # Occupied blocks per task id
system.cpu.icache.tags.age_task_id_blocks_1024::2          429                       # Occupied blocks per task id
system.cpu.icache.tags.age_task_id_blocks_1024::3            1                       # Occupied blocks per task id
system.cpu.icache.tags.occ_task_id_percent::1024     0.998047                       # Percentage of cache occupancy per task id
system.cpu.icache.tags.tag_accesses            340536                       # Number of tag accesses
system.cpu.icache.tags.data_accesses           340536                       # Number of data accesses
system.cpu.icache.ReadReq_hits::switch_cpus.inst       152648                       # number of ReadReq hits
system.cpu.icache.ReadReq_hits::total          152648                       # number of ReadReq hits
system.cpu.icache.demand_hits::switch_cpus.inst       152648                       # number of demand (read+write) hits
system.cpu.icache.demand_hits::total           152648                       # number of demand (read+write) hits
system.cpu.icache.overall_hits::switch_cpus.inst       152648                       # number of overall hits
system.cpu.icache.overall_hits::total          152648                       # number of overall hits
system.cpu.icache.ReadReq_misses::switch_cpus.inst        12403                       # number of ReadReq misses
system.cpu.icache.ReadReq_misses::total         12403                       # number of ReadReq misses
system.cpu.icache.demand_misses::switch_cpus.inst        12403                       # number of demand (read+write) misses
system.cpu.icache.demand_misses::total          12403                       # number of demand (read+write) misses
system.cpu.icache.overall_misses::switch_cpus.inst        12403                       # number of overall misses
system.cpu.icache.overall_misses::total         12403                       # number of overall misses
system.cpu.icache.ReadReq_miss_latency::switch_cpus.inst    770036000                       # number of ReadReq miss cycles
system.cpu.icache.ReadReq_miss_latency::total    770036000                       # number of ReadReq miss cycles
system.cpu.icache.demand_miss_latency::switch_cpus.inst    770036000                       # number of demand (read+write) miss cycles
system.cpu.icache.demand_miss_latency::total    770036000                       # number of demand (read+write) miss cycles
system.cpu.icache.overall_miss_latency::switch_cpus.inst    770036000                       # number of overall miss cycles
system.cpu.icache.overall_miss_latency::total    770036000                       # number of overall miss cycles
system.cpu.icache.ReadReq_accesses::switch_cpus.inst       165051                       # number of ReadReq accesses(hits+misses)
system.cpu.icache.ReadReq_accesses::total       165051                       # number of ReadReq accesses(hits+misses)
system.cpu.icache.demand_accesses::switch_cpus.inst       165051                       # number of demand (read+write) accesses
system.cpu.icache.demand_accesses::total       165051                       # number of demand (read+write) accesses
system.cpu.icache.overall_accesses::switch_cpus.inst       165051                       # number of overall (read+write) accesses
system.cpu.icache.overall_accesses::total       165051                       # number of overall (read+write) accesses
system.cpu.icache.ReadReq_miss_rate::switch_cpus.inst     0.075146                       # miss rate for ReadReq accesses
system.cpu.icache.ReadReq_miss_rate::total     0.075146                       # miss rate for ReadReq accesses
system.cpu.icache.demand_miss_rate::switch_cpus.inst     0.075146                       # miss rate for demand accesses
system.cpu.icache.demand_miss_rate::total     0.075146                       # miss rate for demand accesses
system.cpu.icache.overall_miss_rate::switch_cpus.inst     0.075146                       # miss rate for overall accesses
system.cpu.icache.overall_miss_rate::total     0.075146                       # miss rate for overall accesses
system.cpu.icache.ReadReq_avg_miss_latency::switch_cpus.inst 62084.656938                       # average ReadReq miss latency
system.cpu.icache.ReadReq_avg_miss_latency::total 62084.656938                       # average ReadReq miss latency
system.cpu.icache.demand_avg_miss_latency::switch_cpus.inst 62084.656938                       # average overall miss latency
system.cpu.icache.demand_avg_miss_latency::total 62084.656938                       # average overall miss latency
system.cpu.icache.overall_avg_miss_latency::switch_cpus.inst 62084.656938                       # average overall miss latency
system.cpu.icache.overall_avg_miss_latency::total 62084.656938                       # average overall miss latency
system.cpu.icache.blocked_cycles::no_mshrs         2335                       # number of cycles access was blocked
system.cpu.icache.blocked_cycles::no_targets            0                       # number of cycles access was blocked
system.cpu.icache.blocked::no_mshrs                44                       # number of cycles access was blocked
system.cpu.icache.blocked::no_targets               0                       # number of cycles access was blocked
system.cpu.icache.avg_blocked_cycles::no_mshrs    53.068182                       # average number of cycles each access was blocked
system.cpu.icache.avg_blocked_cycles::no_targets          nan                       # average number of cycles each access was blocked
system.cpu.icache.fast_writes                       0                       # number of fast writes performed
system.cpu.icache.cache_copies                      0                       # number of cache copies performed
system.cpu.icache.ReadReq_mshr_hits::switch_cpus.inst         1969                       # number of ReadReq MSHR hits
system.cpu.icache.ReadReq_mshr_hits::total         1969                       # number of ReadReq MSHR hits
system.cpu.icache.demand_mshr_hits::switch_cpus.inst         1969                       # number of demand (read+write) MSHR hits
system.cpu.icache.demand_mshr_hits::total         1969                       # number of demand (read+write) MSHR hits
system.cpu.icache.overall_mshr_hits::switch_cpus.inst         1969                       # number of overall MSHR hits
system.cpu.icache.overall_mshr_hits::total         1969                       # number of overall MSHR hits
system.cpu.icache.ReadReq_mshr_misses::switch_cpus.inst        10434                       # number of ReadReq MSHR misses
system.cpu.icache.ReadReq_mshr_misses::total        10434                       # number of ReadReq MSHR misses
system.cpu.icache.demand_mshr_misses::switch_cpus.inst        10434                       # number of demand (read+write) MSHR misses
system.cpu.icache.demand_mshr_misses::total        10434                       # number of demand (read+write) MSHR misses
system.cpu.icache.overall_mshr_misses::switch_cpus.inst        10434                       # number of overall MSHR misses
system.cpu.icache.overall_mshr_misses::total        10434                       # number of overall MSHR misses
system.cpu.icache.ReadReq_mshr_miss_latency::switch_cpus.inst    641186500                       # number of ReadReq MSHR miss cycles
system.cpu.icache.ReadReq_mshr_miss_latency::total    641186500                       # number of ReadReq MSHR miss cycles
system.cpu.icache.demand_mshr_miss_latency::switch_cpus.inst    641186500                       # number of demand (read+write) MSHR miss cycles
[...]
system.switch_cpus.iew.wb_fanout             0.752665                       # average fanout of values written-back
system.switch_cpus.iew.wb_penalized_rate            0                       # fraction of instructions written-back that wrote to 'other' IQ
system.switch_cpus.commit.commitSquashedInsts   1264035693                       # The number of squashed insts skipped by commit
system.switch_cpus.commit.commitNonSpecStalls     91070311                       # The number of times commit has been forced to stall to communicate backwards
system.switch_cpus.commit.branchMispredicts     58763585                       # The number of times a branch was mispredicted
system.switch_cpus.commit.committed_per_cycle::samples   6482535903                       # Number of insts commited each cycle
system.switch_cpus.commit.committed_per_cycle::mean     0.793966                       # Number of insts commited each cycle
system.switch_cpus.commit.committed_per_cycle::stdev     1.757884                       # Number of insts commited each cycle
system.switch_cpus.commit.committed_per_cycle::underflows            0      0.00%      0.00% # Number of insts commited each cycle
system.switch_cpus.commit.committed_per_cycle::0   4585219489     70.73%     70.73% # Number of insts commited each cycle
system.switch_cpus.commit.committed_per_cycle::1    862251643     13.30%     84.03% # Number of insts commited each cycle
system.switch_cpus.commit.committed_per_cycle::2    356521874      5.50%     89.53% # Number of insts commited each cycle
system.switch_cpus.commit.committed_per_cycle::3    238652622      3.68%     93.21% # Number of insts commited each cycle
system.switch_cpus.commit.committed_per_cycle::4     69433281      1.07%     94.29% # Number of insts commited each cycle
system.switch_cpus.commit.committed_per_cycle::5     97678651      1.51%     95.79% # Number of insts commited each cycle
system.switch_cpus.commit.committed_per_cycle::6     30987913      0.48%     96.27% # Number of insts commited each cycle
system.switch_cpus.commit.committed_per_cycle::7     30715108      0.47%     96.74% # Number of insts commited each cycle
system.switch_cpus.commit.committed_per_cycle::8    211075322      3.26%    100.00% # Number of insts commited each cycle
system.switch_cpus.commit.committed_per_cycle::overflows            0      0.00%    100.00% # Number of insts commited each cycle
system.switch_cpus.commit.committed_per_cycle::min_value            0                       # Number of insts commited each cycle
system.switch_cpus.commit.committed_per_cycle::max_value            8                       # Number of insts commited each cycle
system.switch_cpus.commit.committed_per_cycle::total   6482535903                       # Number of insts commited each cycle
system.switch_cpus.commit.committedInsts   5146915446                       # Number of instructions committed
system.switch_cpus.commit.committedOps     5146915446                       # Number of ops (including micro ops) committed
system.switch_cpus.commit.swp_count                 0                       # Number of s/w prefetches committed
system.switch_cpus.commit.refs             1874860481                       # Number of memory references committed
system.switch_cpus.commit.loads            1107810290                       # Number of loads committed
system.switch_cpus.commit.membars            19846314                       # Number of memory barriers committed
system.switch_cpus.commit.branches          688616640                       # Number of branches committed
system.switch_cpus.commit.fp_insts            1807845                       # Number of committed floating point instructions.
system.switch_cpus.commit.int_insts        4846782947                       # Number of committed integer instructions.
system.switch_cpus.commit.function_calls     23415397                       # Number of function calls committed.
system.switch_cpus.commit.op_class_0::No_OpClass    149838132      2.91%      2.91% # Class of committed instruction
system.switch_cpus.commit.op_class_0::IntAlu   2835780492     55.10%     58.01% # Class of committed instruction
system.switch_cpus.commit.op_class_0::IntMult      1240488      0.02%     58.03% # Class of committed instruction
system.switch_cpus.commit.op_class_0::IntDiv            0      0.00%     58.03% # Class of committed instruction
system.switch_cpus.commit.op_class_0::FloatAdd       803655      0.02%     58.05% # Class of committed instruction
system.switch_cpus.commit.op_class_0::FloatCmp          525      0.00%     58.05% # Class of committed instruction
system.switch_cpus.commit.op_class_0::FloatCvt       299019      0.01%     58.05% # Class of committed instruction
system.switch_cpus.commit.op_class_0::FloatMult            7      0.00%     58.05% # Class of committed instruction
system.switch_cpus.commit.op_class_0::FloatDiv        99673      0.00%     58.06% # Class of committed instruction
system.switch_cpus.commit.op_class_0::FloatSqrt            0      0.00%     58.06% # Class of committed instruction
system.switch_cpus.commit.op_class_0::SimdAdd            0      0.00%     58.06% # Class of committed instruction
system.switch_cpus.commit.op_class_0::SimdAddAcc            0      0.00%     58.06% # Class of committed instruction
system.switch_cpus.commit.op_class_0::SimdAlu            0      0.00%     58.06% # Class of committed instruction
system.switch_cpus.commit.op_class_0::SimdCmp            0      0.00%     58.06% # Class of committed instruction
system.switch_cpus.commit.op_class_0::SimdCvt            0      0.00%     58.06% # Class of committed instruction
system.switch_cpus.commit.op_class_0::SimdMisc            0      0.00%     58.06% # Class of committed instruction
system.switch_cpus.commit.op_class_0::SimdMult            0      0.00%     58.06% # Class of committed instruction
system.switch_cpus.commit.op_class_0::SimdMultAcc            0      0.00%     58.06% # Class of committed instruction
system.switch_cpus.commit.op_class_0::SimdShift            0      0.00%     58.06% # Class of committed instruction
system.switch_cpus.commit.op_class_0::SimdShiftAcc            0      0.00%     58.06% # Class of committed instruction
system.switch_cpus.commit.op_class_0::SimdSqrt            0      0.00%     58.06% # Class of committed instruction
system.switch_cpus.commit.op_class_0::SimdFloatAdd            0      0.00%     58.06% # Class of committed instruction
system.switch_cpus.commit.op_class_0::SimdFloatAlu            0      0.00%     58.06% # Class of committed instruction
system.switch_cpus.commit.op_class_0::SimdFloatCmp            0      0.00%     58.06% # Class of committed instruction
system.switch_cpus.commit.op_class_0::SimdFloatCvt            0      0.00%     58.06% # Class of committed instruction
system.switch_cpus.commit.op_class_0::SimdFloatDiv            0      0.00%     58.06% # Class of committed instruction
system.switch_cpus.commit.op_class_0::SimdFloatMisc            0      0.00%     58.06% # Class of committed instruction
system.switch_cpus.commit.op_class_0::SimdFloatMult            0      0.00%     58.06% # Class of committed instruction
system.switch_cpus.commit.op_class_0::SimdFloatMultAcc            0      0.00%     58.06% # Class of committed instruction
system.switch_cpus.commit.op_class_0::SimdFloatSqrt            0      0.00%     58.06% # Class of committed instruction
system.switch_cpus.commit.op_class_0::MemRead   1127656604     21.91%     79.96% # Class of committed instruction
system.switch_cpus.commit.op_class_0::MemWrite    767065044     14.90%     94.87% # Class of committed instruction
system.switch_cpus.commit.op_class_0::IprAccess    264131807      5.13%    100.00% # Class of committed instruction
system.switch_cpus.commit.op_class_0::InstPrefetch            0      0.00%    100.00% # Class of committed instruction
system.switch_cpus.commit.op_class_0::total   5146915446                       # Class of committed instruction
system.switch_cpus.commit.bw_lim_events     211075322                       # number cycles where commit BW limit reached
system.switch_cpus.rob.rob_reads          12527627037                       # The number of ROB reads
system.switch_cpus.rob.rob_writes         13012678892                       # The number of ROB writes
system.switch_cpus.timesIdled                 1340907                       # Number of times that the entire CPU went into an idle state and unscheduled itself
system.switch_cpus.idleCycles                41965172                       # Total number of cycles that the CPU has spent unscheduled due to idling
system.switch_cpus.quiesceCycles              2190529                       # Total number of cycles that CPU has spent quiesced or waiting for an interrupt
system.switch_cpus.committedInsts          4997276661                       # Number of Instructions Simulated
system.switch_cpus.committedOps            4997276661                       # Number of Ops (including micro ops) Simulated
system.switch_cpus.cpi                       1.343741                       # CPI: Cycles Per Instruction
system.switch_cpus.cpi_total                 1.343741                       # CPI: Total CPI of All Threads
system.switch_cpus.ipc                       0.744191                       # IPC: Instructions Per Cycle
system.switch_cpus.ipc_total                 0.744191                       # IPC: Total IPC of All Threads
system.switch_cpus.int_regfile_reads       7625617137                       # number of integer regfile reads
system.switch_cpus.int_regfile_writes      4089321657                       # number of integer regfile writes
system.switch_cpus.fp_regfile_reads           1057480                       # number of floating regfile reads
system.switch_cpus.fp_regfile_writes          1001757                       # number of floating regfile writes
system.switch_cpus.misc_regfile_reads       269011207                       # number of misc regfile reads
system.switch_cpus.misc_regfile_writes      211534909                       # number of misc regfile writes
system.tol2bus.trans_dist::ReadReq           10029825                       # Transaction distribution
system.tol2bus.trans_dist::ReadResp          10029640                       # Transaction distribution
system.tol2bus.trans_dist::WriteReq              5086                       # Transaction distribution
system.tol2bus.trans_dist::WriteResp             5086                       # Transaction distribution
system.tol2bus.trans_dist::Writeback          3643944                       # Transaction distribution
system.tol2bus.trans_dist::WriteInvalidateReq       128866                       # Transaction distribution
system.tol2bus.trans_dist::UpgradeReq            2230                       # Transaction distribution
system.tol2bus.trans_dist::SCUpgradeReq             2                       # Transaction distribution
system.tol2bus.trans_dist::UpgradeResp           2232                       # Transaction distribution
system.tol2bus.trans_dist::ReadExReq          1819195                       # Transaction distribution
system.tol2bus.trans_dist::ReadExResp         1819195                       # Transaction distribution
system.tol2bus.pkt_count_system.cpu.icache.mem_side::system.l2.cpu_side      8030987                       # Packet count per connected master and slave (bytes)
system.tol2bus.pkt_count_system.cpu.dcache.mem_side::system.l2.cpu_side     19322903                       # Packet count per connected master and slave (bytes)
system.tol2bus.pkt_count::total              27353890                       # Packet count per connected master and slave (bytes)
system.tol2bus.pkt_size_system.cpu.icache.mem_side::system.l2.cpu_side    256918528                       # Cumulative packet size per connected master and slave (bytes)
system.tol2bus.pkt_size_system.cpu.dcache.mem_side::system.l2.cpu_side    734430594                       # Cumulative packet size per connected master and slave (bytes)
system.tol2bus.pkt_size::total              991349122                       # Cumulative packet size per connected master and slave (bytes)
system.tol2bus.snoops                          131488                       # Total snoops (count)
system.tol2bus.snoop_fanout::samples         15629148                       # Request fanout histogram
system.tol2bus.snoop_fanout::mean            1.008262                       # Request fanout histogram
system.tol2bus.snoop_fanout::stdev           0.090519                       # Request fanout histogram
system.tol2bus.snoop_fanout::underflows             0      0.00%      0.00% # Request fanout histogram
system.tol2bus.snoop_fanout::0                      0      0.00%      0.00% # Request fanout histogram
system.tol2bus.snoop_fanout::1               15500020     99.17%     99.17% # Request fanout histogram
system.tol2bus.snoop_fanout::2                 129128      0.83%    100.00% # Request fanout histogram
system.tol2bus.snoop_fanout::overflows              0      0.00%    100.00% # Request fanout histogram
system.tol2bus.snoop_fanout::min_value              1                       # Request fanout histogram
system.tol2bus.snoop_fanout::max_value              2                       # Request fanout histogram
system.tol2bus.snoop_fanout::total           15629148                       # Request fanout histogram
system.tol2bus.reqLayer0.occupancy        11396502489                       # Layer occupancy (ticks)
system.tol2bus.reqLayer0.utilization              0.3                       # Layer utilization (%)
system.tol2bus.snoopLayer0.occupancy           115500                       # Layer occupancy (ticks)
system.tol2bus.snoopLayer0.utilization            0.0                       # Layer utilization (%)
system.tol2bus.respLayer0.occupancy        6093306105                       # Layer occupancy (ticks)
system.tol2bus.respLayer0.utilization             0.2                       # Layer utilization (%)
system.tol2bus.respLayer1.occupancy       12386317573                       # Layer occupancy (ticks)
system.tol2bus.respLayer1.utilization             0.4                       # Layer utilization (%)
system.tsunami.ethernet.descDMAReads                0                       # Number of descriptors the device read w/ DMA
system.tsunami.ethernet.descDMAWrites               0                       # Number of descriptors the device wrote w/ DMA
system.tsunami.ethernet.descDmaReadBytes            0                       # number of descriptor bytes read w/ DMA
system.tsunami.ethernet.descDmaWriteBytes            0                       # number of descriptor bytes write w/ DMA
system.tsunami.ethernet.postedSwi                   0                       # number of software interrupts posted to CPU
system.tsunami.ethernet.coalescedSwi              nan                       # average number of Swi's coalesced into each post
system.tsunami.ethernet.totalSwi                    0                       # total number of Swi written to ISR
system.tsunami.ethernet.postedRxIdle                0                       # number of rxIdle interrupts posted to CPU
system.tsunami.ethernet.coalescedRxIdle           nan                       # average number of RxIdle's coalesced into each post
system.tsunami.ethernet.totalRxIdle                 0                       # total number of RxIdle written to ISR
system.tsunami.ethernet.postedRxOk                  0                       # number of RxOk interrupts posted to CPU
system.tsunami.ethernet.coalescedRxOk             nan                       # average number of RxOk's coalesced into each post
system.tsunami.ethernet.totalRxOk                   0                       # total number of RxOk written to ISR
system.tsunami.ethernet.postedRxDesc                0                       # number of RxDesc interrupts posted to CPU
system.tsunami.ethernet.coalescedRxDesc           nan                       # average number of RxDesc's coalesced into each post
system.tsunami.ethernet.totalRxDesc                 0                       # total number of RxDesc written to ISR
system.tsunami.ethernet.postedTxOk                  0                       # number of TxOk interrupts posted to CPU
system.tsunami.ethernet.coalescedTxOk             nan                       # average number of TxOk's coalesced into each post
system.tsunami.ethernet.totalTxOk                   0                       # total number of TxOk written to ISR
system.tsunami.ethernet.postedTxIdle                0                       # number of TxIdle interrupts posted to CPU
system.tsunami.ethernet.coalescedTxIdle           nan                       # average number of TxIdle's coalesced into each post
system.tsunami.ethernet.totalTxIdle                 0                       # total number of TxIdle written to ISR
system.tsunami.ethernet.postedTxDesc                0                       # number of TxDesc interrupts posted to CPU
system.tsunami.ethernet.coalescedTxDesc           nan                       # average number of TxDesc's coalesced into each post
system.tsunami.ethernet.totalTxDesc                 0                       # total number of TxDesc written to ISR
system.tsunami.ethernet.postedRxOrn                 0                       # number of RxOrn posted to CPU
system.tsunami.ethernet.coalescedRxOrn            nan                       # average number of RxOrn's coalesced into each post
system.tsunami.ethernet.totalRxOrn                  0                       # total number of RxOrn written to ISR
system.tsunami.ethernet.coalescedTotal            nan                       # average number of interrupts coalesced into each post
system.tsunami.ethernet.postedInterrupts            0                       # number of posts to CPU
system.tsunami.ethernet.droppedPackets              0                       # number of packets dropped
system.switch_cpus.kern.inst.arm                    0                       # number of arm instructions executed
system.switch_cpus.kern.inst.quiesce                0                       # number of quiesce instructions executed
system.switch_cpus.kern.inst.hwrei                  0                       # number of hwrei instructions executed
system.switch_cpus.kern.mode_switch::kernel            0                       # number of protection mode switches
system.switch_cpus.kern.mode_switch::user            0                       # number of protection mode switches
system.switch_cpus.kern.mode_switch::idle            0                       # number of protection mode switches
system.switch_cpus.kern.mode_good::kernel            0                      
system.switch_cpus.kern.mode_good::user             0                      
system.switch_cpus.kern.mode_good::idle             0                      
system.switch_cpus.kern.mode_switch_good::kernel          nan                       # fraction of useful protection mode switches
system.switch_cpus.kern.mode_switch_good::user          nan                       # fraction of useful protection mode switches
system.switch_cpus.kern.mode_switch_good::idle          nan                       # fraction of useful protection mode switches
system.switch_cpus.kern.mode_switch_good::total          nan                       # fraction of useful protection mode switches
system.switch_cpus.kern.mode_ticks::kernel            0                       # number of ticks spent at the given mode
system.switch_cpus.kern.mode_ticks::user            0                       # number of ticks spent at the given mode
system.switch_cpus.kern.mode_ticks::idle            0                       # number of ticks spent at the given mode
system.switch_cpus.kern.swap_context                0                       # number of times the context was actually changed

---------- End Simulation Statistics   ----------
