
---------- Begin Simulation Statistics ----------
sim_seconds                                  0.001250                       # Number of seconds simulated
sim_ticks                                  1250021000                       # Number of ticks simulated
final_tick                               2255689940000                       # Number of ticks from beginning of simulation (restored from checkpoints and never reset)
sim_freq                                 1000000000000                       # Frequency of simulated ticks
host_inst_rate                               30314159                       # Simulator instruction rate (inst/s)
host_op_rate                                 30314090                       # Simulator op (including micro ops) rate (op/s)
host_tick_rate                              386730043                       # Simulator tick rate (ticks/s)
host_mem_usage                                 729108                       # Number of bytes of host memory used
host_seconds                                     3.23                       # Real time elapsed on the host
sim_insts                                    97983523                       # Number of instructions simulated
sim_ops                                      97983523                       # Number of ops (including micro ops) simulated
system.voltage_domain.voltage                       1                       # Voltage in Volts
system.clk_domain.clock                          1000                       # Clock period in ticks
system.mem_ctrls.bytes_read::switch_cpus.inst       448384                       # Number of bytes read from this memory
system.mem_ctrls.bytes_read::switch_cpus.data      1001600                       # Number of bytes read from this memory
system.mem_ctrls.bytes_read::total            1449984                       # Number of bytes read from this memory
system.mem_ctrls.bytes_inst_read::switch_cpus.inst       448384                       # Number of instructions bytes read from this memory
system.mem_ctrls.bytes_inst_read::total        448384                       # Number of instructions bytes read from this memory
system.mem_ctrls.bytes_written::writebacks       607552                       # Number of bytes written to this memory
system.mem_ctrls.bytes_written::total          607552                       # Number of bytes written to this memory
system.mem_ctrls.num_reads::switch_cpus.inst         7006                       # Number of read requests responded to by this memory
system.mem_ctrls.num_reads::switch_cpus.data        15650                       # Number of read requests responded to by this memory
system.mem_ctrls.num_reads::total               22656                       # Number of read requests responded to by this memory
system.mem_ctrls.num_writes::writebacks          9493                       # Number of write requests responded to by this memory
system.mem_ctrls.num_writes::total               9493                       # Number of write requests responded to by this memory
system.mem_ctrls.bw_read::switch_cpus.inst    358701174                       # Total read bandwidth from this memory (bytes/s)
system.mem_ctrls.bw_read::switch_cpus.data    801266539                       # Total read bandwidth from this memory (bytes/s)
system.mem_ctrls.bw_read::total            1159967713                       # Total read bandwidth from this memory (bytes/s)
system.mem_ctrls.bw_inst_read::switch_cpus.inst    358701174                       # Instruction read bandwidth from this memory (bytes/s)
system.mem_ctrls.bw_inst_read::total        358701174                       # Instruction read bandwidth from this memory (bytes/s)
system.mem_ctrls.bw_write::writebacks       486033435                       # Write bandwidth from this memory (bytes/s)
system.mem_ctrls.bw_write::total            486033435                       # Write bandwidth from this memory (bytes/s)
system.mem_ctrls.bw_total::writebacks       486033435                       # Total bandwidth to/from this memory (bytes/s)
system.mem_ctrls.bw_total::switch_cpus.inst    358701174                       # Total bandwidth to/from this memory (bytes/s)
system.mem_ctrls.bw_total::switch_cpus.data    801266539                       # Total bandwidth to/from this memory (bytes/s)
system.mem_ctrls.bw_total::total           1646001147                       # Total bandwidth to/from this memory (bytes/s)
system.mem_ctrls.readReqs                       22656                       # Number of read requests accepted
system.mem_ctrls.writeReqs                       9493                       # Number of write requests accepted
system.mem_ctrls.readBursts                     22656                       # Number of DRAM read bursts, including those serviced by the write queue
system.mem_ctrls.writeBursts                     9493                       # Number of DRAM write bursts, including those merged in the write queue
system.mem_ctrls.bytesReadDRAM                1446656                       # Total number of bytes read from DRAM
system.mem_ctrls.bytesReadWrQ                    3328                       # Total number of bytes read from write queue
system.mem_ctrls.bytesWritten                  605952                       # Total number of bytes written to DRAM
system.mem_ctrls.bytesReadSys                 1449984                       # Total read bytes from the system interface side
system.mem_ctrls.bytesWrittenSys               607552                       # Total written bytes from the system interface side
system.mem_ctrls.servicedByWrQ                     52                       # Number of DRAM read bursts serviced by the write queue
system.mem_ctrls.mergedWrBursts                     2                       # Number of DRAM write bursts merged with an existing one
system.mem_ctrls.neitherReadNorWriteReqs            7                       # Number of requests that are neither read nor write
system.mem_ctrls.perBankRdBursts::0              1487                       # Per bank write bursts
system.mem_ctrls.perBankRdBursts::1              1080                       # Per bank write bursts
system.mem_ctrls.perBankRdBursts::2              1597                       # Per bank write bursts
system.mem_ctrls.perBankRdBursts::3              1438                       # Per bank write bursts
system.mem_ctrls.perBankRdBursts::4              1592                       # Per bank write bursts
system.mem_ctrls.perBankRdBursts::5              1157                       # Per bank write bursts
system.mem_ctrls.perBankRdBursts::6              1523                       # Per bank write bursts
system.mem_ctrls.perBankRdBursts::7              1140                       # Per bank write bursts
system.mem_ctrls.perBankRdBursts::8              1402                       # Per bank write bursts
system.mem_ctrls.perBankRdBursts::9              1460                       # Per bank write bursts
system.mem_ctrls.perBankRdBursts::10             1366                       # Per bank write bursts
system.mem_ctrls.perBankRdBursts::11             1687                       # Per bank write bursts
system.mem_ctrls.perBankRdBursts::12             1297                       # Per bank write bursts
system.mem_ctrls.perBankRdBursts::13             2080                       # Per bank write bursts
system.mem_ctrls.perBankRdBursts::14             1311                       # Per bank write bursts
system.mem_ctrls.perBankRdBursts::15              987                       # Per bank write bursts
system.mem_ctrls.perBankWrBursts::0               552                       # Per bank write bursts
system.mem_ctrls.perBankWrBursts::1               586                       # Per bank write bursts
system.mem_ctrls.perBankWrBursts::2               876                       # Per bank write bursts
system.mem_ctrls.perBankWrBursts::3              1023                       # Per bank write bursts
system.mem_ctrls.perBankWrBursts::4               898                       # Per bank write bursts
system.mem_ctrls.perBankWrBursts::5               646                       # Per bank write bursts
system.mem_ctrls.perBankWrBursts::6               806                       # Per bank write bursts
system.mem_ctrls.perBankWrBursts::7               431                       # Per bank write bursts
system.mem_ctrls.perBankWrBursts::8               404                       # Per bank write bursts
system.mem_ctrls.perBankWrBursts::9               693                       # Per bank write bursts
system.mem_ctrls.perBankWrBursts::10              296                       # Per bank write bursts
system.mem_ctrls.perBankWrBursts::11              427                       # Per bank write bursts
system.mem_ctrls.perBankWrBursts::12              275                       # Per bank write bursts
system.mem_ctrls.perBankWrBursts::13              516                       # Per bank write bursts
system.mem_ctrls.perBankWrBursts::14              531                       # Per bank write bursts
system.mem_ctrls.perBankWrBursts::15              508                       # Per bank write bursts
system.mem_ctrls.numRdRetry                         0                       # Number of times read queue was full causing retry
system.mem_ctrls.numWrRetry                         0                       # Number of times write queue was full causing retry
system.mem_ctrls.totGap                    1249989000                       # Total gap between requests
system.mem_ctrls.readPktSize::0                     0                       # Read request sizes (log2)
system.mem_ctrls.readPktSize::1                     0                       # Read request sizes (log2)
system.mem_ctrls.readPktSize::2                     0                       # Read request sizes (log2)
system.mem_ctrls.readPktSize::3                     0                       # Read request sizes (log2)
system.mem_ctrls.readPktSize::4                     0                       # Read request sizes (log2)
system.mem_ctrls.readPktSize::5                     0                       # Read request sizes (log2)
system.mem_ctrls.readPktSize::6                 22656                       # Read request sizes (log2)
system.mem_ctrls.writePktSize::0                    0                       # Write request sizes (log2)
system.mem_ctrls.writePktSize::1                    0                       # Write request sizes (log2)
system.mem_ctrls.writePktSize::2                    0                       # Write request sizes (log2)
system.mem_ctrls.writePktSize::3                    0                       # Write request sizes (log2)
system.mem_ctrls.writePktSize::4                    0                       # Write request sizes (log2)
system.mem_ctrls.writePktSize::5                    0                       # Write request sizes (log2)
system.mem_ctrls.writePktSize::6                 9493                       # Write request sizes (log2)
system.mem_ctrls.rdQLenPdf::0                   11744                       # What read queue length does an incoming req see
system.mem_ctrls.rdQLenPdf::1                    6105                       # What read queue length does an incoming req see
system.mem_ctrls.rdQLenPdf::2                    3092                       # What read queue length does an incoming req see
system.mem_ctrls.rdQLenPdf::3                    1616                       # What read queue length does an incoming req see
system.mem_ctrls.rdQLenPdf::4                      43                       # What read queue length does an incoming req see
system.mem_ctrls.rdQLenPdf::5                       4                       # What read queue length does an incoming req see
system.mem_ctrls.rdQLenPdf::6                       0                       # What read queue length does an incoming req see
system.mem_ctrls.rdQLenPdf::7                       0                       # What read queue length does an incoming req see
system.mem_ctrls.rdQLenPdf::8                       0                       # What read queue length does an incoming req see
system.mem_ctrls.rdQLenPdf::9                       0                       # What read queue length does an incoming req see
system.mem_ctrls.rdQLenPdf::10                      0                       # What read queue length does an incoming req see
system.mem_ctrls.rdQLenPdf::11                      0                       # What read queue length does an incoming req see
system.mem_ctrls.rdQLenPdf::12                      0                       # What read queue length does an incoming req see
system.mem_ctrls.rdQLenPdf::13                      0                       # What read queue length does an incoming req see
system.mem_ctrls.rdQLenPdf::14                      0                       # What read queue length does an incoming req see
system.mem_ctrls.rdQLenPdf::15                      0                       # What read queue length does an incoming req see
system.mem_ctrls.rdQLenPdf::16                      0                       # What read queue length does an incoming req see
system.mem_ctrls.rdQLenPdf::17                      0                       # What read queue length does an incoming req see
system.mem_ctrls.rdQLenPdf::18                      0                       # What read queue length does an incoming req see
system.mem_ctrls.rdQLenPdf::19                      0                       # What read queue length does an incoming req see
system.mem_ctrls.rdQLenPdf::20                      0                       # What read queue length does an incoming req see
system.mem_ctrls.rdQLenPdf::21                      0                       # What read queue length does an incoming req see
system.mem_ctrls.rdQLenPdf::22                      0                       # What read queue length does an incoming req see
system.mem_ctrls.rdQLenPdf::23                      0                       # What read queue length does an incoming req see
system.mem_ctrls.rdQLenPdf::24                      0                       # What read queue length does an incoming req see
system.mem_ctrls.rdQLenPdf::25                      0                       # What read queue length does an incoming req see
system.mem_ctrls.rdQLenPdf::26                      0                       # What read queue length does an incoming req see
system.mem_ctrls.rdQLenPdf::27                      0                       # What read queue length does an incoming req see
system.mem_ctrls.rdQLenPdf::28                      0                       # What read queue length does an incoming req see
system.mem_ctrls.rdQLenPdf::29                      0                       # What read queue length does an incoming req see
system.mem_ctrls.rdQLenPdf::30                      0                       # What read queue length does an incoming req see
system.mem_ctrls.rdQLenPdf::31                      0                       # What read queue length does an incoming req see
system.mem_ctrls.wrQLenPdf::0                       1                       # What write queue length does an incoming req see
system.mem_ctrls.wrQLenPdf::1                       1                       # What write queue length does an incoming req see
system.mem_ctrls.wrQLenPdf::2                       1                       # What write queue length does an incoming req see
system.mem_ctrls.wrQLenPdf::3                       1                       # What write queue length does an incoming req see
system.mem_ctrls.wrQLenPdf::4                       1                       # What write queue length does an incoming req see
system.mem_ctrls.wrQLenPdf::5                       1                       # What write queue length does an incoming req see
system.mem_ctrls.wrQLenPdf::6                       1                       # What write queue length does an incoming req see
system.mem_ctrls.wrQLenPdf::7                       1                       # What write queue length does an incoming req see
system.mem_ctrls.wrQLenPdf::8                       1                       # What write queue length does an incoming req see
system.mem_ctrls.wrQLenPdf::9                       1                       # What write queue length does an incoming req see
system.mem_ctrls.wrQLenPdf::10                      1                       # What write queue length does an incoming req see
system.mem_ctrls.wrQLenPdf::11                      1                       # What write queue length does an incoming req see
system.mem_ctrls.wrQLenPdf::12                      1                       # What write queue length does an incoming req see
system.mem_ctrls.wrQLenPdf::13                      1                       # What write queue length does an incoming req see
system.mem_ctrls.wrQLenPdf::14                      1                       # What write queue length does an incoming req see
system.mem_ctrls.wrQLenPdf::15                     46                       # What write queue length does an incoming req see
system.mem_ctrls.wrQLenPdf::16                     52                       # What write queue length does an incoming req see
system.mem_ctrls.wrQLenPdf::17                    275                       # What write queue length does an incoming req see
system.mem_ctrls.wrQLenPdf::18                    412                       # What write queue length does an incoming req see
system.mem_ctrls.wrQLenPdf::19                    525                       # What write queue length does an incoming req see
system.mem_ctrls.wrQLenPdf::20                    606                       # What write queue length does an incoming req see
system.mem_ctrls.wrQLenPdf::21                    618                       # What write queue length does an incoming req see
system.mem_ctrls.wrQLenPdf::22                    613                       # What write queue length does an incoming req see
system.mem_ctrls.wrQLenPdf::23                    610                       # What write queue length does an incoming req see
system.mem_ctrls.wrQLenPdf::24                    610                       # What write queue length does an incoming req see
system.mem_ctrls.wrQLenPdf::25                    628                       # What write queue length does an incoming req see
system.mem_ctrls.wrQLenPdf::26                    715                       # What write queue length does an incoming req see
system.mem_ctrls.wrQLenPdf::27                    636                       # What write queue length does an incoming req see
system.mem_ctrls.wrQLenPdf::28                    638                       # What write queue length does an incoming req see
system.mem_ctrls.wrQLenPdf::29                    690                       # What write queue length does an incoming req see
system.mem_ctrls.wrQLenPdf::30                    614                       # What write queue length does an incoming req see
system.mem_ctrls.wrQLenPdf::31                    602                       # What write queue length does an incoming req see
system.mem_ctrls.wrQLenPdf::32                    586                       # What write queue length does an incoming req see
system.mem_ctrls.wrQLenPdf::33                      0                       # What write queue length does an incoming req see
system.mem_ctrls.wrQLenPdf::34                      0                       # What write queue length does an incoming req see
system.mem_ctrls.wrQLenPdf::35                      0                       # What write queue length does an incoming req see
system.mem_ctrls.wrQLenPdf::36                      0                       # What write queue length does an incoming req see
system.mem_ctrls.wrQLenPdf::37                      0                       # What write queue length does an incoming req see
system.mem_ctrls.wrQLenPdf::38                      0                       # What write queue length does an incoming req see
system.mem_ctrls.wrQLenPdf::39                      0                       # What write queue length does an incoming req see
system.mem_ctrls.wrQLenPdf::40                      0                       # What write queue length does an incoming req see
system.mem_ctrls.wrQLenPdf::41                      0                       # What write queue length does an incoming req see
system.mem_ctrls.wrQLenPdf::42                      0                       # What write queue length does an incoming req see
system.mem_ctrls.wrQLenPdf::43                      0                       # What write queue length does an incoming req see
system.mem_ctrls.wrQLenPdf::44                      0                       # What write queue length does an incoming req see
system.mem_ctrls.wrQLenPdf::45                      0                       # What write queue length does an incoming req see
system.mem_ctrls.wrQLenPdf::46                      0                       # What write queue length does an incoming req see
system.mem_ctrls.wrQLenPdf::47                      0                       # What write queue length does an incoming req see
system.mem_ctrls.wrQLenPdf::48                      0                       # What write queue length does an incoming req see
system.mem_ctrls.wrQLenPdf::49                      0                       # What write queue length does an incoming req see
system.mem_ctrls.wrQLenPdf::50                      0                       # What write queue length does an incoming req see
system.mem_ctrls.wrQLenPdf::51                      0                       # What write queue length does an incoming req see
system.mem_ctrls.wrQLenPdf::52                      0                       # What write queue length does an incoming req see
system.mem_ctrls.wrQLenPdf::53                      0                       # What write queue length does an incoming req see
system.mem_ctrls.wrQLenPdf::54                      0                       # What write queue length does an incoming req see
system.mem_ctrls.wrQLenPdf::55                      0                       # What write queue length does an incoming req see
system.mem_ctrls.wrQLenPdf::56                      0                       # What write queue length does an incoming req see
system.mem_ctrls.wrQLenPdf::57                      0                       # What write queue length does an incoming req see
system.mem_ctrls.wrQLenPdf::58                      0                       # What write queue length does an incoming req see
system.mem_ctrls.wrQLenPdf::59                      0                       # What write queue length does an incoming req see
system.mem_ctrls.wrQLenPdf::60                      0                       # What write queue length does an incoming req see
system.mem_ctrls.wrQLenPdf::61                      0                       # What write queue length does an incoming req see
system.mem_ctrls.wrQLenPdf::62                      0                       # What write queue length does an incoming req see
system.mem_ctrls.wrQLenPdf::63                      0                       # What write queue length does an incoming req see
system.mem_ctrls.bytesPerActivate::samples         7971                       # Bytes accessed per row activation
system.mem_ctrls.bytesPerActivate::mean    257.124075                       # Bytes accessed per row activation
system.mem_ctrls.bytesPerActivate::gmean   149.214441                       # Bytes accessed per row activation
system.mem_ctrls.bytesPerActivate::stdev   306.810578                       # Bytes accessed per row activation
system.mem_ctrls.bytesPerActivate::0-127         3661     45.93%     45.93% # Bytes accessed per row activation
system.mem_ctrls.bytesPerActivate::128-255         1959     24.58%     70.51% # Bytes accessed per row activation
system.mem_ctrls.bytesPerActivate::256-383          662      8.31%     78.81% # Bytes accessed per row activation
system.mem_ctrls.bytesPerActivate::384-511          321      4.03%     82.84% # Bytes accessed per row activation
system.mem_ctrls.bytesPerActivate::512-639          225      2.82%     85.66% # Bytes accessed per row activation
system.mem_ctrls.bytesPerActivate::640-767          134      1.68%     87.34% # Bytes accessed per row activation
system.mem_ctrls.bytesPerActivate::768-895          139      1.74%     89.09% # Bytes accessed per row activation
system.mem_ctrls.bytesPerActivate::896-1023           97      1.22%     90.30% # Bytes accessed per row activation
system.mem_ctrls.bytesPerActivate::1024-1151          773      9.70%    100.00% # Bytes accessed per row activation
system.mem_ctrls.bytesPerActivate::total         7971                       # Bytes accessed per row activation
system.mem_ctrls.rdPerTurnAround::samples          584                       # Reads before turning the bus around for writes
system.mem_ctrls.rdPerTurnAround::mean      38.684932                       # Reads before turning the bus around for writes
system.mem_ctrls.rdPerTurnAround::gmean     31.707900                       # Reads before turning the bus around for writes
system.mem_ctrls.rdPerTurnAround::stdev     27.988114                       # Reads before turning the bus around for writes
system.mem_ctrls.rdPerTurnAround::0-15             41      7.02%      7.02% # Reads before turning the bus around for writes
system.mem_ctrls.rdPerTurnAround::16-31           252     43.15%     50.17% # Reads before turning the bus around for writes
system.mem_ctrls.rdPerTurnAround::32-47           140     23.97%     74.14% # Reads before turning the bus around for writes
system.mem_ctrls.rdPerTurnAround::48-63            62     10.62%     84.76% # Reads before turning the bus around for writes
system.mem_ctrls.rdPerTurnAround::64-79            49      8.39%     93.15% # Reads before turning the bus around for writes
system.mem_ctrls.rdPerTurnAround::80-95            14      2.40%     95.55% # Reads before turning the bus around for writes
system.mem_ctrls.rdPerTurnAround::96-111           13      2.23%     97.77% # Reads before turning the bus around for writes
system.mem_ctrls.rdPerTurnAround::112-127            6      1.03%     98.80% # Reads before turning the bus around for writes
system.mem_ctrls.rdPerTurnAround::128-143            3      0.51%     99.32% # Reads before turning the bus around for writes
system.mem_ctrls.rdPerTurnAround::160-175            2      0.34%     99.66% # Reads before turning the bus around for writes
system.mem_ctrls.rdPerTurnAround::176-191            1      0.17%     99.83% # Reads before turning the bus around for writes
system.mem_ctrls.rdPerTurnAround::272-287            1      0.17%    100.00% # Reads before turning the bus around for writes
system.mem_ctrls.rdPerTurnAround::total           584                       # Reads before turning the bus around for writes
system.mem_ctrls.wrPerTurnAround::samples          584                       # Writes before turning the bus around for reads
system.mem_ctrls.wrPerTurnAround::mean      16.212329                       # Writes before turning the bus around for reads
system.mem_ctrls.wrPerTurnAround::gmean     16.198914                       # Writes before turning the bus around for reads
system.mem_ctrls.wrPerTurnAround::stdev      0.690130                       # Writes before turning the bus around for reads
system.mem_ctrls.wrPerTurnAround::16              528     90.41%     90.41% # Writes before turning the bus around for reads
system.mem_ctrls.wrPerTurnAround::17                5      0.86%     91.27% # Writes before turning the bus around for reads
system.mem_ctrls.wrPerTurnAround::18               38      6.51%     97.77% # Writes before turning the bus around for reads
system.mem_ctrls.wrPerTurnAround::19               10      1.71%     99.49% # Writes before turning the bus around for reads
system.mem_ctrls.wrPerTurnAround::20                2      0.34%     99.83% # Writes before turning the bus around for reads
system.mem_ctrls.wrPerTurnAround::21                1      0.17%    100.00% # Writes before turning the bus around for reads
system.mem_ctrls.wrPerTurnAround::total           584                       # Writes before turning the bus around for reads
system.mem_ctrls.totQLat                    410738250                       # Total ticks spent queuing
system.mem_ctrls.totMemAccLat               834563250                       # Total ticks spent from burst creation until serviced by the DRAM
system.mem_ctrls.totBusLat                  113020000                       # Total ticks spent in databus transfers
system.mem_ctrls.avgQLat                     18171.04                       # Average queueing delay per DRAM burst
system.mem_ctrls.avgBusLat                    5000.00                       # Average bus latency per DRAM burst
system.mem_ctrls.avgMemAccLat                36921.04                       # Average memory access latency per DRAM burst
system.mem_ctrls.avgRdBW                      1157.31                       # Average DRAM read bandwidth in MiByte/s
system.mem_ctrls.avgWrBW                       484.75                       # Average achieved write bandwidth in MiByte/s
system.mem_ctrls.avgRdBWSys                   1159.97                       # Average system read bandwidth in MiByte/s
system.mem_ctrls.avgWrBWSys                    486.03                       # Average system write bandwidth in MiByte/s
system.mem_ctrls.peakBW                      12800.00                       # Theoretical peak bandwidth in MiByte/s
system.mem_ctrls.busUtil                        12.83                       # Data bus utilization in percentage
system.mem_ctrls.busUtilRead                     9.04                       # Data bus utilization in percentage for reads
system.mem_ctrls.busUtilWrite                    3.79                       # Data bus utilization in percentage for writes
system.mem_ctrls.avgRdQLen                       1.74                       # Average read queue length when enqueuing
system.mem_ctrls.avgWrQLen                      25.61                       # Average write queue length when enqueuing
system.mem_ctrls.readRowHits                    17071                       # Number of row buffer hits during reads
system.mem_ctrls.writeRowHits                    7016                       # Number of row buffer hits during writes
system.mem_ctrls.readRowHitRate                 75.52                       # Row buffer hit rate for reads
system.mem_ctrls.writeRowHitRate                73.92                       # Row buffer hit rate for writes
system.mem_ctrls.avgGap                      38881.12                       # Average gap between requests
system.mem_ctrls.pageHitRate                    75.05                       # Row buffer hit rate, read and write combined
system.mem_ctrls_0.actEnergy                 29718360                       # Energy for activate commands per rank (pJ)
system.mem_ctrls_0.preEnergy                 16215375                       # Energy for precharge commands per rank (pJ)
system.mem_ctrls_0.readEnergy                85667400                       # Energy for read commands per rank (pJ)
system.mem_ctrls_0.writeEnergy               37525680                       # Energy for write commands per rank (pJ)
system.mem_ctrls_0.refreshEnergy             81369600                       # Energy for refresh commands per rank (pJ)
system.mem_ctrls_0.actBackEnergy            803732490                       # Energy for active background per rank (pJ)
system.mem_ctrls_0.preBackEnergy             42607500                       # Energy for precharge background per rank (pJ)
system.mem_ctrls_0.totalEnergy             1096836405                       # Total energy per rank (pJ)
system.mem_ctrls_0.averagePower            880.243652                       # Core power per rank (mW)
system.mem_ctrls_0.memoryStateTime::IDLE     65944250                       # Time in different power states
system.mem_ctrls_0.memoryStateTime::REF      41600000                       # Time in different power states
system.mem_ctrls_0.memoryStateTime::PRE_PDN            0                       # Time in different power states
system.mem_ctrls_0.memoryStateTime::ACT    1138529500                       # Time in different power states
system.mem_ctrls_0.memoryStateTime::ACT_PDN            0                       # Time in different power states
system.mem_ctrls_1.actEnergy                 30383640                       # Energy for activate commands per rank (pJ)
system.mem_ctrls_1.preEnergy                 16578375                       # Energy for precharge commands per rank (pJ)
system.mem_ctrls_1.readEnergy                90129000                       # Energy for read commands per rank (pJ)
system.mem_ctrls_1.writeEnergy               23606640                       # Energy for write commands per rank (pJ)
system.mem_ctrls_1.refreshEnergy             81369600                       # Energy for refresh commands per rank (pJ)
system.mem_ctrls_1.actBackEnergy            825809445                       # Energy for active background per rank (pJ)
system.mem_ctrls_1.preBackEnergy             23241750                       # Energy for precharge background per rank (pJ)
system.mem_ctrls_1.totalEnergy             1091118450                       # Total energy per rank (pJ)
system.mem_ctrls_1.averagePower            875.654824                       # Core power per rank (mW)
system.mem_ctrls_1.memoryStateTime::IDLE     33789250                       # Time in different power states
system.mem_ctrls_1.memoryStateTime::REF      41600000                       # Time in different power states
system.mem_ctrls_1.memoryStateTime::PRE_PDN            0                       # Time in different power states
system.mem_ctrls_1.memoryStateTime::ACT    1170846750                       # Time in different power states
system.mem_ctrls_1.memoryStateTime::ACT_PDN            0                       # Time in different power states
system.cpu_voltage_domain.voltage                   1                       # Voltage in Volts
system.cpu_clk_domain.clock                       500                       # Clock period in ticks
system.cpu.dtb.fetch_hits                           0                       # ITB hits
system.cpu.dtb.fetch_misses                         0                       # ITB misses
system.cpu.dtb.fetch_acv                            0                       # ITB acv
system.cpu.dtb.fetch_accesses                       0                       # ITB accesses
system.cpu.dtb.read_hits                            0                       # DTB read hits
system.cpu.dtb.read_misses                          0                       # DTB read misses
system.cpu.dtb.read_acv                             0                       # DTB read access violations
system.cpu.dtb.read_accesses                        0                       # DTB read accesses
system.cpu.dtb.write_hits                           0                       # DTB write hits
system.cpu.dtb.write_misses                         0                       # DTB write misses
system.cpu.dtb.write_acv                            0                       # DTB write access violations
system.cpu.dtb.write_accesses                       0                       # DTB write accesses
system.cpu.dtb.data_hits                            0                       # DTB hits
system.cpu.dtb.data_misses                          0                       # DTB misses
system.cpu.dtb.data_acv                             0                       # DTB access violations
system.cpu.dtb.data_accesses                        0                       # DTB accesses
system.cpu.itb.fetch_hits                           0                       # ITB hits
system.cpu.itb.fetch_misses                         0                       # ITB misses
system.cpu.itb.fetch_acv                            0                       # ITB acv
system.cpu.itb.fetch_accesses                       0                       # ITB accesses
system.cpu.itb.read_hits                            0                       # DTB read hits
system.cpu.itb.read_misses                          0                       # DTB read misses
system.cpu.itb.read_acv                             0                       # DTB read access violations
system.cpu.itb.read_accesses                        0                       # DTB read accesses
system.cpu.itb.write_hits                           0                       # DTB write hits
system.cpu.itb.write_misses                         0                       # DTB write misses
system.cpu.itb.write_acv                            0                       # DTB write access violations
system.cpu.itb.write_accesses                       0                       # DTB write accesses
system.cpu.itb.data_hits                            0                       # DTB hits
system.cpu.itb.data_misses                          0                       # DTB misses
system.cpu.itb.data_acv                             0                       # DTB access violations
system.cpu.itb.data_accesses                        0                       # DTB accesses
system.cpu.numCycles                                0                       # number of cpu cycles simulated
system.cpu.numWorkItemsStarted                      0                       # number of work items this cpu started
system.cpu.numWorkItemsCompleted                    0                       # number of work items this cpu completed
system.cpu.committedInsts                           0                       # Number of instructions committed
system.cpu.committedOps                             0                       # Number of ops (including micro ops) committed
system.cpu.num_int_alu_accesses                     0                       # Number of integer alu accesses
system.cpu.num_fp_alu_accesses                      0                       # Number of float alu accesses
system.cpu.num_func_calls                           0                       # number of times a function call or return occured
system.cpu.num_conditional_control_insts            0                       # number of instructions that are conditional controls
system.cpu.num_int_insts                            0                       # number of integer instructions
system.cpu.num_fp_insts                             0                       # number of float instructions
system.cpu.num_int_register_reads                   0                       # number of times the integer registers were read
system.cpu.num_int_register_writes                  0                       # number of times the integer registers were written
system.cpu.num_fp_register_reads                    0                       # number of times the floating registers were read
system.cpu.num_fp_register_writes                   0                       # number of times the floating registers were written
system.cpu.num_mem_refs                             0                       # number of memory refs
system.cpu.num_load_insts                           0                       # Number of load instructions
system.cpu.num_store_insts                          0                       # Number of store instructions
system.cpu.num_idle_cycles                          0                       # Number of idle cycles
system.cpu.num_busy_cycles                          0                       # Number of busy cycles
system.cpu.not_idle_fraction                        1                       # Percentage of non-idle cycles
system.cpu.idle_fraction                            0                       # Percentage of idle cycles
system.cpu.op_class::No_OpClass                     0                       # Class of executed instruction
system.cpu.op_class::IntAlu                         0                       # Class of executed instruction
system.cpu.op_class::IntMult                        0                       # Class of executed instruction
system.cpu.op_class::IntDiv                         0                       # Class of executed instruction
system.cpu.op_class::FloatAdd                       0                       # Class of executed instruction
system.cpu.op_class::FloatCmp                       0                       # Class of executed instruction
system.cpu.op_class::FloatCvt                       0                       # Class of executed instruction
system.cpu.op_class::FloatMult                      0                       # Class of executed instruction
system.cpu.op_class::FloatDiv                       0                       # Class of executed instruction
system.cpu.op_class::FloatSqrt                      0                       # Class of executed instruction
system.cpu.op_class::SimdAdd                        0                       # Class of executed instruction
system.cpu.op_class::SimdAddAcc                     0                       # Class of executed instruction
system.cpu.op_class::SimdAlu                        0                       # Class of executed instruction
system.cpu.op_class::SimdCmp                        0                       # Class of executed instruction
system.cpu.op_class::SimdCvt                        0                       # Class of executed instruction
system.cpu.op_class::SimdMisc                       0                       # Class of executed instruction
system.cpu.op_class::SimdMult                       0                       # Class of executed instruction
system.cpu.op_class::SimdMultAcc                    0                       # Class of executed instruction
system.cpu.op_class::SimdShift                      0                       # Class of executed instruction
system.cpu.op_class::SimdShiftAcc                   0                       # Class of executed instruction
system.cpu.op_class::SimdSqrt                       0                       # Class of executed instruction
system.cpu.op_class::SimdFloatAdd                   0                       # Class of executed instruction
system.cpu.op_class::SimdFloatAlu                   0                       # Class of executed instruction
system.cpu.op_class::SimdFloatCmp                   0                       # Class of executed instruction
system.cpu.op_class::SimdFloatCvt                   0                       # Class of executed instruction
system.cpu.op_class::SimdFloatDiv                   0                       # Class of executed instruction
system.cpu.op_class::SimdFloatMisc                  0                       # Class of executed instruction
system.cpu.op_class::SimdFloatMult                  0                       # Class of executed instruction
system.cpu.op_class::SimdFloatMultAcc               0                       # Class of executed instruction
system.cpu.op_class::SimdFloatSqrt                  0                       # Class of executed instruction
system.cpu.op_class::MemRead                        0                       # Class of executed instruction
system.cpu.op_class::MemWrite                       0                       # Class of executed instruction
system.cpu.op_class::IprAccess                      0                       # Class of executed instruction
system.cpu.op_class::InstPrefetch                   0                       # Class of executed instruction
system.cpu.op_class::total                          0                       # Class of executed instruction
system.cpu.kern.inst.arm                            0                       # number of arm instructions executed
system.cpu.kern.inst.quiesce                        0                       # number of quiesce instructions executed
system.cpu.kern.inst.hwrei                       2781                       # number of hwrei instructions executed
system.cpu.kern.ipl_count::0                      635     49.15%     49.15% # number of times we switched to this ipl
system.cpu.kern.ipl_count::22                       1      0.08%     49.23% # number of times we switched to this ipl
system.cpu.kern.ipl_count::31                     656     50.77%    100.00% # number of times we switched to this ipl
system.cpu.kern.ipl_count::total                 1292                       # number of times we switched to this ipl
system.cpu.kern.ipl_good::0                       633     49.96%     49.96% # number of times we switched to this ipl from a different ipl
system.cpu.kern.ipl_good::22                        1      0.08%     50.04% # number of times we switched to this ipl from a different ipl
system.cpu.kern.ipl_good::31                      633     49.96%    100.00% # number of times we switched to this ipl from a different ipl
system.cpu.kern.ipl_good::total                  1267                       # number of times we switched to this ipl from a different ipl
system.cpu.kern.ipl_ticks::0               1138438500     91.20%     91.20% # number of cycles we spent at this ipl
system.cpu.kern.ipl_ticks::22                 1524000      0.12%     91.32% # number of cycles we spent at this ipl
system.cpu.kern.ipl_ticks::31               108309500      8.68%    100.00% # number of cycles we spent at this ipl
system.cpu.kern.ipl_ticks::total           1248272000                       # number of cycles we spent at this ipl
system.cpu.kern.ipl_used::0                  0.996850                       # fraction of swpipl calls that actually changed the ipl
system.cpu.kern.ipl_used::22                        1                       # fraction of swpipl calls that actually changed the ipl
system.cpu.kern.ipl_used::31                 0.964939                       # fraction of swpipl calls that actually changed the ipl
system.cpu.kern.ipl_used::total              0.980650                       # fraction of swpipl calls that actually changed the ipl
system.cpu.kern.syscall::2                          1      5.56%      5.56% # number of syscalls executed
system.cpu.kern.syscall::3                          2     11.11%     16.67% # number of syscalls executed
system.cpu.kern.syscall::6                          2     11.11%     27.78% # number of syscalls executed
system.cpu.kern.syscall::17                         1      5.56%     33.33% # number of syscalls executed
system.cpu.kern.syscall::19                         1      5.56%     38.89% # number of syscalls executed
system.cpu.kern.syscall::33                         1      5.56%     44.44% # number of syscalls executed
system.cpu.kern.syscall::45                         3     16.67%     61.11% # number of syscalls executed
system.cpu.kern.syscall::48                         1      5.56%     66.67% # number of syscalls executed
system.cpu.kern.syscall::59                         1      5.56%     72.22% # number of syscalls executed
system.cpu.kern.syscall::71                         4     22.22%     94.44% # number of syscalls executed
system.cpu.kern.syscall::74                         1      5.56%    100.00% # number of syscalls executed
system.cpu.kern.syscall::total                     18                       # number of syscalls executed
system.cpu.kern.callpal::swpctx                   118      8.10%      8.10% # number of callpals executed
system.cpu.kern.callpal::tbi                        6      0.41%      8.51% # number of callpals executed
system.cpu.kern.callpal::swpipl                  1107     75.98%     84.49% # number of callpals executed
system.cpu.kern.callpal::rdps                       3      0.21%     84.69% # number of callpals executed
system.cpu.kern.callpal::wrusp                      1      0.07%     84.76% # number of callpals executed
system.cpu.kern.callpal::rdusp                      1      0.07%     84.83% # number of callpals executed
system.cpu.kern.callpal::rti                      184     12.63%     97.46% # number of callpals executed
system.cpu.kern.callpal::callsys                   33      2.26%     99.73% # number of callpals executed
system.cpu.kern.callpal::imb                        4      0.27%    100.00% # number of callpals executed
system.cpu.kern.callpal::total                   1457                       # number of callpals executed
system.cpu.kern.mode_switch::kernel               302                       # number of protection mode switches
system.cpu.kern.mode_switch::user                 181                       # number of protection mode switches
system.cpu.kern.mode_switch::idle                   0                       # number of protection mode switches
system.cpu.kern.mode_good::kernel                 181                      
system.cpu.kern.mode_good::user                   181                      
system.cpu.kern.mode_good::idle                     0                      
system.cpu.kern.mode_switch_good::kernel     0.599338                       # fraction of useful protection mode switches
system.cpu.kern.mode_switch_good::user              1                       # fraction of useful protection mode switches
system.cpu.kern.mode_switch_good::idle            nan                       # fraction of useful protection mode switches
system.cpu.kern.mode_switch_good::total      0.749482                       # fraction of useful protection mode switches
system.cpu.kern.mode_ticks::kernel          876688000     70.23%     70.23% # number of ticks spent at the given mode
system.cpu.kern.mode_ticks::user            371577000     29.77%    100.00% # number of ticks spent at the given mode
system.cpu.kern.mode_ticks::idle                    0      0.00%    100.00% # number of ticks spent at the given mode
system.cpu.kern.swap_context                      118                       # number of times the context was actually changed
system.cpu.dcache.tags.replacements             18275                       # number of replacements
system.cpu.dcache.tags.tagsinuse                  512                       # Cycle average of tags in use
system.cpu.dcache.tags.total_refs              200362                       # Total number of references to valid blocks.
system.cpu.dcache.tags.sampled_refs             18275                       # Sample count of references to valid blocks.
system.cpu.dcache.tags.avg_refs             10.963721                       # Average number of references to valid blocks.
system.cpu.dcache.tags.warmup_cycle                 0                       # Cycle when the warmup percentage was hit.
system.cpu.dcache.tags.occ_blocks::cpu.data    24.483888                       # Average occupied blocks per requestor
system.cpu.dcache.tags.occ_blocks::switch_cpus.data   487.516112                       # Average occupied blocks per requestor
system.cpu.dcache.tags.occ_percent::cpu.data     0.047820                       # Average percentage of cache occupancy
system.cpu.dcache.tags.occ_percent::switch_cpus.data     0.952180                       # Average percentage of cache occupancy
system.cpu.dcache.tags.occ_percent::total            1                       # Average percentage of cache occupancy
system.cpu.dcache.tags.occ_task_id_blocks::1024          512                       # Occupied blocks per task id
system.cpu.dcache.tags.age_task_id_blocks_1024::0           95                       # Occupied blocks per task id
system.cpu.dcache.tags.age_task_id_blocks_1024::1          358                       # Occupied blocks per task id
system.cpu.dcache.tags.age_task_id_blocks_1024::2           59                       # Occupied blocks per task id
system.cpu.dcache.tags.occ_task_id_percent::1024            1                       # Percentage of cache occupancy per task id
system.cpu.dcache.tags.tag_accesses           1187863                       # Number of tag accesses
system.cpu.dcache.tags.data_accesses          1187863                       # Number of data accesses
system.cpu.dcache.ReadReq_hits::switch_cpus.data       134424                       # number of ReadReq hits
system.cpu.dcache.ReadReq_hits::total          134424                       # number of ReadReq hits
system.cpu.dcache.WriteReq_hits::switch_cpus.data        58654                       # number of WriteReq hits
system.cpu.dcache.WriteReq_hits::total          58654                       # number of WriteReq hits
system.cpu.dcache.LoadLockedReq_hits::switch_cpus.data         2218                       # number of LoadLockedReq hits
system.cpu.dcache.LoadLockedReq_hits::total         2218                       # number of LoadLockedReq hits
system.cpu.dcache.StoreCondReq_hits::switch_cpus.data         2377                       # number of StoreCondReq hits
system.cpu.dcache.StoreCondReq_hits::total         2377                       # number of StoreCondReq hits
system.cpu.dcache.demand_hits::switch_cpus.data       193078                       # number of demand (read+write) hits
system.cpu.dcache.demand_hits::total           193078                       # number of demand (read+write) hits
system.cpu.dcache.overall_hits::switch_cpus.data       193078                       # number of overall hits
system.cpu.dcache.overall_hits::total          193078                       # number of overall hits
system.cpu.dcache.ReadReq_misses::switch_cpus.data        26742                       # number of ReadReq misses
system.cpu.dcache.ReadReq_misses::total         26742                       # number of ReadReq misses
system.cpu.dcache.WriteReq_misses::switch_cpus.data        67582                       # number of WriteReq misses
system.cpu.dcache.WriteReq_misses::total        67582                       # number of WriteReq misses
system.cpu.dcache.LoadLockedReq_misses::switch_cpus.data          399                       # number of LoadLockedReq misses
system.cpu.dcache.LoadLockedReq_misses::total          399                       # number of LoadLockedReq misses
system.cpu.dcache.StoreCondReq_misses::switch_cpus.data            1                       # number of StoreCondReq misses
system.cpu.dcache.StoreCondReq_misses::total            1                       # number of StoreCondReq misses
system.cpu.dcache.demand_misses::switch_cpus.data        94324                       # number of demand (read+write) misses
system.cpu.dcache.demand_misses::total          94324                       # number of demand (read+write) misses
system.cpu.dcache.overall_misses::switch_cpus.data        94324                       # number of overall misses
system.cpu.dcache.overall_misses::total         94324                       # number of overall misses
system.cpu.dcache.ReadReq_miss_latency::switch_cpus.data   1647915752                       # number of ReadReq miss cycles
system.cpu.dcache.ReadReq_miss_latency::total   1647915752                       # number of ReadReq miss cycles
system.cpu.dcache.WriteReq_miss_latency::switch_cpus.data   5025573106                       # number of WriteReq miss cycles
system.cpu.dcache.WriteReq_miss_latency::total   5025573106                       # number of WriteReq miss cycles
system.cpu.dcache.LoadLockedReq_miss_latency::switch_cpus.data     28188250                       # number of LoadLockedReq miss cycles
system.cpu.dcache.LoadLockedReq_miss_latency::total     28188250                       # number of LoadLockedReq miss cycles
system.cpu.dcache.StoreCondReq_miss_latency::switch_cpus.data        34001                       # number of StoreCondReq miss cycles
system.cpu.dcache.StoreCondReq_miss_latency::total        34001                       # number of StoreCondReq miss cycles
system.cpu.dcache.demand_miss_latency::switch_cpus.data   6673488858                       # number of demand (read+write) miss cycles
system.cpu.dcache.demand_miss_latency::total   6673488858                       # number of demand (read+write) miss cycles
system.cpu.dcache.overall_miss_latency::switch_cpus.data   6673488858                       # number of overall miss cycles
system.cpu.dcache.overall_miss_latency::total   6673488858                       # number of overall miss cycles
system.cpu.dcache.ReadReq_accesses::switch_cpus.data       161166                       # number of ReadReq accesses(hits+misses)
system.cpu.dcache.ReadReq_accesses::total       161166                       # number of ReadReq accesses(hits+misses)
system.cpu.dcache.WriteReq_accesses::switch_cpus.data       126236                       # number of WriteReq accesses(hits+misses)
system.cpu.dcache.WriteReq_accesses::total       126236                       # number of WriteReq accesses(hits+misses)
system.cpu.dcache.LoadLockedReq_accesses::switch_cpus.data         2617                       # number of LoadLockedReq accesses(hits+misses)
system.cpu.dcache.LoadLockedReq_accesses::total         2617                       # number of LoadLockedReq accesses(hits+misses)
system.cpu.dcache.StoreCondReq_accesses::switch_cpus.data         2378                       # number of StoreCondReq accesses(hits+misses)
system.cpu.dcache.StoreCondReq_accesses::total         2378                       # number of StoreCondReq accesses(hits+misses)
system.cpu.dcache.demand_accesses::switch_cpus.data       287402                       # number of demand (read+write) accesses
system.cpu.dcache.demand_accesses::total       287402                       # number of demand (read+write) accesses
system.cpu.dcache.overall_accesses::switch_cpus.data       287402                       # number of overall (read+write) accesses
system.cpu.dcache.overall_accesses::total       287402                       # number of overall (read+write) accesses
system.cpu.dcache.ReadReq_miss_rate::switch_cpus.data     0.165928                       # miss rate for ReadReq accesses
system.cpu.dcache.ReadReq_miss_rate::total     0.165928                       # miss rate for ReadReq accesses
system.cpu.dcache.WriteReq_miss_rate::switch_cpus.data     0.535362                       # miss rate for WriteReq accesses
system.cpu.dcache.WriteReq_miss_rate::total     0.535362                       # miss rate for WriteReq accesses
system.cpu.dcache.LoadLockedReq_miss_rate::switch_cpus.data     0.152465                       # miss rate for LoadLockedReq accesses
system.cpu.dcache.LoadLockedReq_miss_rate::total     0.152465                       # miss rate for LoadLockedReq accesses
system.cpu.dcache.StoreCondReq_miss_rate::switch_cpus.data     0.000421                       # miss rate for StoreCondReq accesses
system.cpu.dcache.StoreCondReq_miss_rate::total     0.000421                       # miss rate for StoreCondReq accesses
system.cpu.dcache.demand_miss_rate::switch_cpus.data     0.328195                       # miss rate for demand accesses
system.cpu.dcache.demand_miss_rate::total     0.328195                       # miss rate for demand accesses
system.cpu.dcache.overall_miss_rate::switch_cpus.data     0.328195                       # miss rate for overall accesses
system.cpu.dcache.overall_miss_rate::total     0.328195                       # miss rate for overall accesses
system.cpu.dcache.ReadReq_avg_miss_latency::switch_cpus.data 61622.756413                       # average ReadReq miss latency
system.cpu.dcache.ReadReq_avg_miss_latency::total 61622.756413                       # average ReadReq miss latency
system.cpu.dcache.WriteReq_avg_miss_latency::switch_cpus.data 74362.598118                       # average WriteReq miss latency
system.cpu.dcache.WriteReq_avg_miss_latency::total 74362.598118                       # average WriteReq miss latency
system.cpu.dcache.LoadLockedReq_avg_miss_latency::switch_cpus.data 70647.243108                       # average LoadLockedReq miss latency
system.cpu.dcache.LoadLockedReq_avg_miss_latency::total 70647.243108                       # average LoadLockedReq miss latency
system.cpu.dcache.StoreCondReq_avg_miss_latency::switch_cpus.data        34001                       # average StoreCondReq miss latency
system.cpu.dcache.StoreCondReq_avg_miss_latency::total        34001                       # average StoreCondReq miss latency
system.cpu.dcache.demand_avg_miss_latency::switch_cpus.data 70750.698210                       # average overall miss latency
system.cpu.dcache.demand_avg_miss_latency::total 70750.698210                       # average overall miss latency
system.cpu.dcache.overall_avg_miss_latency::switch_cpus.data 70750.698210                       # average overall miss latency
system.cpu.dcache.overall_avg_miss_latency::total 70750.698210                       # average overall miss latency
system.cpu.dcache.blocked_cycles::no_mshrs       397029                       # number of cycles access was blocked
system.cpu.dcache.blocked_cycles::no_targets           70                       # number of cycles access was blocked
system.cpu.dcache.blocked::no_mshrs              7653                       # number of cycles access was blocked
system.cpu.dcache.blocked::no_targets               1                       # number of cycles access was blocked
system.cpu.dcache.avg_blocked_cycles::no_mshrs    51.878871                       # average number of cycles each access was blocked
system.cpu.dcache.avg_blocked_cycles::no_targets           70                       # average number of cycles each access was blocked
system.cpu.dcache.fast_writes                       0                       # number of fast writes performed
system.cpu.dcache.cache_copies                      0                       # number of cache copies performed
system.cpu.dcache.writebacks::writebacks        10978                       # number of writebacks
system.cpu.dcache.writebacks::total             10978                       # number of writebacks
system.cpu.dcache.ReadReq_mshr_hits::switch_cpus.data        17776                       # number of ReadReq MSHR hits
system.cpu.dcache.ReadReq_mshr_hits::total        17776                       # number of ReadReq MSHR hits
system.cpu.dcache.WriteReq_mshr_hits::switch_cpus.data        58485                       # number of WriteReq MSHR hits
system.cpu.dcache.WriteReq_mshr_hits::total        58485                       # number of WriteReq MSHR hits
system.cpu.dcache.LoadLockedReq_mshr_hits::switch_cpus.data          177                       # number of LoadLockedReq MSHR hits
system.cpu.dcache.LoadLockedReq_mshr_hits::total          177                       # number of LoadLockedReq MSHR hits
system.cpu.dcache.demand_mshr_hits::switch_cpus.data        76261                       # number of demand (read+write) MSHR hits
system.cpu.dcache.demand_mshr_hits::total        76261                       # number of demand (read+write) MSHR hits
system.cpu.dcache.overall_mshr_hits::switch_cpus.data        76261                       # number of overall MSHR hits
system.cpu.dcache.overall_mshr_hits::total        76261                       # number of overall MSHR hits
system.cpu.dcache.ReadReq_mshr_misses::switch_cpus.data         8966                       # number of ReadReq MSHR misses
system.cpu.dcache.ReadReq_mshr_misses::total         8966                       # number of ReadReq MSHR misses
system.cpu.dcache.WriteReq_mshr_misses::switch_cpus.data         9097                       # number of WriteReq MSHR misses
system.cpu.dcache.WriteReq_mshr_misses::total         9097                       # number of WriteReq MSHR misses
system.cpu.dcache.LoadLockedReq_mshr_misses::switch_cpus.data          222                       # number of LoadLockedReq MSHR misses
system.cpu.dcache.LoadLockedReq_mshr_misses::total          222                       # number of LoadLockedReq MSHR misses
system.cpu.dcache.StoreCondReq_mshr_misses::switch_cpus.data            1                       # number of StoreCondReq MSHR misses
system.cpu.dcache.StoreCondReq_mshr_misses::total            1                       # number of StoreCondReq MSHR misses
system.cpu.dcache.demand_mshr_misses::switch_cpus.data        18063                       # number of demand (read+write) MSHR misses
system.cpu.dcache.demand_mshr_misses::total        18063                       # number of demand (read+write) MSHR misses
system.cpu.dcache.overall_mshr_misses::switch_cpus.data        18063                       # number of overall MSHR misses
system.cpu.dcache.overall_mshr_misses::total        18063                       # number of overall MSHR misses
system.cpu.dcache.WriteReq_mshr_uncacheable::switch_cpus.data            1                       # number of WriteReq MSHR uncacheable
system.cpu.dcache.WriteReq_mshr_uncacheable::total            1                       # number of WriteReq MSHR uncacheable
system.cpu.dcache.overall_mshr_uncacheable_misses::switch_cpus.data            1                       # number of overall MSHR uncacheable misses
system.cpu.dcache.overall_mshr_uncacheable_misses::total            1                       # number of overall MSHR uncacheable misses
system.cpu.dcache.ReadReq_mshr_miss_latency::switch_cpus.data    647440500                       # number of ReadReq MSHR miss cycles
system.cpu.dcache.ReadReq_mshr_miss_latency::total    647440500                       # number of ReadReq MSHR miss cycles
system.cpu.dcache.WriteReq_mshr_miss_latency::switch_cpus.data    779780272                       # number of WriteReq MSHR miss cycles
system.cpu.dcache.WriteReq_mshr_miss_latency::total    779780272                       # number of WriteReq MSHR miss cycles
system.cpu.dcache.LoadLockedReq_mshr_miss_latency::switch_cpus.data     15042500                       # number of LoadLockedReq MSHR miss cycles
system.cpu.dcache.LoadLockedReq_mshr_miss_latency::total     15042500                       # number of LoadLockedReq MSHR miss cycles
system.cpu.dcache.StoreCondReq_mshr_miss_latency::switch_cpus.data        32499                       # number of StoreCondReq MSHR miss cycles
system.cpu.dcache.StoreCondReq_mshr_miss_latency::total        32499                       # number of StoreCondReq MSHR miss cycles
system.cpu.dcache.demand_mshr_miss_latency::switch_cpus.data   1427220772                       # number of demand (read+write) MSHR miss cycles
system.cpu.dcache.demand_mshr_miss_latency::total   1427220772                       # number of demand (read+write) MSHR miss cycles
system.cpu.dcache.overall_mshr_miss_latency::switch_cpus.data   1427220772                       # number of overall MSHR miss cycles
system.cpu.dcache.overall_mshr_miss_latency::total   1427220772                       # number of overall MSHR miss cycles
system.cpu.dcache.WriteReq_mshr_uncacheable_latency::switch_cpus.data       223500                       # number of WriteReq MSHR uncacheable cycles
system.cpu.dcache.WriteReq_mshr_uncacheable_latency::total       223500                       # number of WriteReq MSHR uncacheable cycles
system.cpu.dcache.overall_mshr_uncacheable_latency::switch_cpus.data       223500                       # number of overall MSHR uncacheable cycles
system.cpu.dcache.overall_mshr_uncacheable_latency::total       223500                       # number of overall MSHR uncacheable cycles
system.cpu.dcache.ReadReq_mshr_miss_rate::switch_cpus.data     0.055632                       # mshr miss rate for ReadReq accesses
system.cpu.dcache.ReadReq_mshr_miss_rate::total     0.055632                       # mshr miss rate for ReadReq accesses
system.cpu.dcache.WriteReq_mshr_miss_rate::switch_cpus.data     0.072063                       # mshr miss rate for WriteReq accesses
system.cpu.dcache.WriteReq_mshr_miss_rate::total     0.072063                       # mshr miss rate for WriteReq accesses
system.cpu.dcache.LoadLockedReq_mshr_miss_rate::switch_cpus.data     0.084830                       # mshr miss rate for LoadLockedReq accesses
system.cpu.dcache.LoadLockedReq_mshr_miss_rate::total     0.084830                       # mshr miss rate for LoadLockedReq accesses
system.cpu.dcache.StoreCondReq_mshr_miss_rate::switch_cpus.data     0.000421                       # mshr miss rate for StoreCondReq accesses
system.cpu.dcache.StoreCondReq_mshr_miss_rate::total     0.000421                       # mshr miss rate for StoreCondReq accesses
system.cpu.dcache.demand_mshr_miss_rate::switch_cpus.data     0.062849                       # mshr miss rate for demand accesses
system.cpu.dcache.demand_mshr_miss_rate::total     0.062849                       # mshr miss rate for demand accesses
system.cpu.dcache.overall_mshr_miss_rate::switch_cpus.data     0.062849                       # mshr miss rate for overall accesses
system.cpu.dcache.overall_mshr_miss_rate::total     0.062849                       # mshr miss rate for overall accesses
system.cpu.dcache.ReadReq_avg_mshr_miss_latency::switch_cpus.data 72210.629043                       # average ReadReq mshr miss latency
system.cpu.dcache.ReadReq_avg_mshr_miss_latency::total 72210.629043                       # average ReadReq mshr miss latency
system.cpu.dcache.WriteReq_avg_mshr_miss_latency::switch_cpus.data 85718.398593                       # average WriteReq mshr miss latency
system.cpu.dcache.WriteReq_avg_mshr_miss_latency::total 85718.398593                       # average WriteReq mshr miss latency
system.cpu.dcache.LoadLockedReq_avg_mshr_miss_latency::switch_cpus.data 67759.009009                       # average LoadLockedReq mshr miss latency
system.cpu.dcache.LoadLockedReq_avg_mshr_miss_latency::total 67759.009009                       # average LoadLockedReq mshr miss latency
system.cpu.dcache.StoreCondReq_avg_mshr_miss_latency::switch_cpus.data        32499                       # average StoreCondReq mshr miss latency
system.cpu.dcache.StoreCondReq_avg_mshr_miss_latency::total        32499                       # average StoreCondReq mshr miss latency
system.cpu.dcache.demand_avg_mshr_miss_latency::switch_cpus.data 79013.495654                       # average overall mshr miss latency
system.cpu.dcache.demand_avg_mshr_miss_latency::total 79013.495654                       # average overall mshr miss latency
system.cpu.dcache.overall_avg_mshr_miss_latency::switch_cpus.data 79013.495654                       # average overall mshr miss latency
system.cpu.dcache.overall_avg_mshr_miss_latency::total 79013.495654                       # average overall mshr miss latency
system.cpu.dcache.WriteReq_avg_mshr_uncacheable_latency::switch_cpus.data       223500                       # average WriteReq mshr uncacheable latency
system.cpu.dcache.WriteReq_avg_mshr_uncacheable_latency::total       223500                       # average WriteReq mshr uncacheable latency
system.cpu.dcache.overall_avg_mshr_uncacheable_latency::switch_cpus.data       223500                       # average overall mshr uncacheable latency
system.cpu.dcache.overall_avg_mshr_uncacheable_latency::total       223500                       # average overall mshr uncacheable latency
system.cpu.dcache.no_allocate_misses                0                       # Number of misses that were no-allocate
system.cpu.icache.tags.replacements             10174                       # number of replacements
system.cpu.icache.tags.tagsinuse           511.761995                       # Cycle average of tags in use
system.cpu.icache.tags.total_refs              362352                       # Total number of references to valid blocks.
system.cpu.icache.tags.sampled_refs             10174                       # Sample count of references to valid blocks.
system.cpu.icache.tags.avg_refs             35.615490                       # Average number of references to valid blocks.
system.cpu.icache.tags.warmup_cycle                 0                       # Cycle when the warmup percentage was hit.
system.cpu.icache.tags.occ_blocks::cpu.inst    21.110067                       # Average occupied blocks per requestor
system.cpu.icache.tags.occ_blocks::switch_cpus.inst   490.651927                       # Average occupied blocks per requestor
system.cpu.icache.tags.occ_percent::cpu.inst     0.041231                       # Average percentage of cache occupancy
system.cpu.icache.tags.occ_percent::switch_cpus.inst     0.958305                       # Average percentage of cache occupancy
system.cpu.icache.tags.occ_percent::total     0.999535                       # Average percentage of cache occupancy
system.cpu.icache.tags.occ_task_id_blocks::1024          511                       # Occupied blocks per task id
system.cpu.icache.tags.age_task_id_blocks_1024::0           58                       # Occupied blocks per task id
system.cpu.icache.tags.age_task_id_blocks_1024::1           17                       # Occupied blocks per task id
system.cpu.icache.tags.age_task_id_blocks_1024::2          435                       # Occupied blocks per task id
system.cpu.icache.tags.age_task_id_blocks_1024::3            1                       # Occupied blocks per task id
system.cpu.icache.tags.occ_task_id_percent::1024     0.998047                       # Percentage of cache occupancy per task id
system.cpu.icache.tags.tag_accesses            339046                       # Number of tag accesses
system.cpu.icache.tags.data_accesses           339046                       # Number of data accesses
system.cpu.icache.ReadReq_hits::switch_cpus.inst       152274                       # number of ReadReq hits
system.cpu.icache.ReadReq_hits::total          152274                       # number of ReadReq hits
system.cpu.icache.demand_hits::switch_cpus.inst       152274                       # number of demand (read+write) hits
system.cpu.icache.demand_hits::total           152274                       # number of demand (read+write) hits
system.cpu.icache.overall_hits::switch_cpus.inst       152274                       # number of overall hits
system.cpu.icache.overall_hits::total          152274                       # number of overall hits
system.cpu.icache.ReadReq_misses::switch_cpus.inst        12157                       # number of ReadReq misses
system.cpu.icache.ReadReq_misses::total         12157                       # number of ReadReq misses
system.cpu.icache.demand_misses::switch_cpus.inst        12157                       # number of demand (read+write) misses
system.cpu.icache.demand_misses::total          12157                       # number of demand (read+write) misses
system.cpu.icache.overall_misses::switch_cpus.inst        12157                       # number of overall misses
system.cpu.icache.overall_misses::total         12157                       # number of overall misses
system.cpu.icache.ReadReq_miss_latency::switch_cpus.inst    756650996                       # number of ReadReq miss cycles
system.cpu.icache.ReadReq_miss_latency::total    756650996                       # number of ReadReq miss cycles
system.cpu.icache.demand_miss_latency::switch_cpus.inst    756650996                       # number of demand (read+write) miss cycles
system.cpu.icache.demand_miss_latency::total    756650996                       # number of demand (read+write) miss cycles
system.cpu.icache.overall_miss_latency::switch_cpus.inst    756650996                       # number of overall miss cycles
system.cpu.icache.overall_miss_latency::total    756650996                       # number of overall miss cycles
system.cpu.icache.ReadReq_accesses::switch_cpus.inst       164431                       # number of ReadReq accesses(hits+misses)
system.cpu.icache.ReadReq_accesses::total       164431                       # number of ReadReq accesses(hits+misses)
system.cpu.icache.demand_accesses::switch_cpus.inst       164431                       # number of demand (read+write) accesses
system.cpu.icache.demand_accesses::total       164431                       # number of demand (read+write) accesses
system.cpu.icache.overall_accesses::switch_cpus.inst       164431                       # number of overall (read+write) accesses
system.cpu.icache.overall_accesses::total       164431                       # number of overall (read+write) accesses
system.cpu.icache.ReadReq_miss_rate::switch_cpus.inst     0.073934                       # miss rate for ReadReq accesses
system.cpu.icache.ReadReq_miss_rate::total     0.073934                       # miss rate for ReadReq accesses
system.cpu.icache.demand_miss_rate::switch_cpus.inst     0.073934                       # miss rate for demand accesses
system.cpu.icache.demand_miss_rate::total     0.073934                       # miss rate for demand accesses
system.cpu.icache.overall_miss_rate::switch_cpus.inst     0.073934                       # miss rate for overall accesses
system.cpu.icache.overall_miss_rate::total     0.073934                       # miss rate for overall accesses
system.cpu.icache.ReadReq_avg_miss_latency::switch_cpus.inst 62239.943736                       # average ReadReq miss latency
system.cpu.icache.ReadReq_avg_miss_latency::total 62239.943736                       # average ReadReq miss latency
system.cpu.icache.demand_avg_miss_latency::switch_cpus.inst 62239.943736                       # average overall miss latency
system.cpu.icache.demand_avg_miss_latency::total 62239.943736                       # average overall miss latency
system.cpu.icache.overall_avg_miss_latency::switch_cpus.inst 62239.943736                       # average overall miss latency
system.cpu.icache.overall_avg_miss_latency::total 62239.943736                       # average overall miss latency
system.cpu.icache.blocked_cycles::no_mshrs         1880                       # number of cycles access was blocked
system.cpu.icache.blocked_cycles::no_targets            0                       # number of cycles access was blocked
system.cpu.icache.blocked::no_mshrs                31                       # number of cycles access was blocked
system.cpu.icache.blocked::no_targets               0                       # number of cycles access was blocked
system.cpu.icache.avg_blocked_cycles::no_mshrs    60.645161                       # average number of cycles each access was blocked
system.cpu.icache.avg_blocked_cycles::no_targets          nan                       # average number of cycles each access was blocked
system.cpu.icache.fast_writes                       0                       # number of fast writes performed
system.cpu.icache.cache_copies                      0                       # number of cache copies performed
system.cpu.icache.ReadReq_mshr_hits::switch_cpus.inst         1973                       # number of ReadReq MSHR hits
system.cpu.icache.ReadReq_mshr_hits::total         1973                       # number of ReadReq MSHR hits
system.cpu.icache.demand_mshr_hits::switch_cpus.inst         1973                       # number of demand (read+write) MSHR hits
system.cpu.icache.demand_mshr_hits::total         1973                       # number of demand (read+write) MSHR hits
system.cpu.icache.overall_mshr_hits::switch_cpus.inst         1973                       # number of overall MSHR hits
system.cpu.icache.overall_mshr_hits::total         1973                       # number of overall MSHR hits
system.cpu.icache.ReadReq_mshr_misses::switch_cpus.inst        10184                       # number of ReadReq MSHR misses
system.cpu.icache.ReadReq_mshr_misses::total        10184                       # number of ReadReq MSHR misses
system.cpu.icache.demand_mshr_misses::switch_cpus.inst        10184                       # number of demand (read+write) MSHR misses
system.cpu.icache.demand_mshr_misses::total        10184                       # number of demand (read+write) MSHR misses
system.cpu.icache.overall_mshr_misses::switch_cpus.inst        10184                       # number of overall MSHR misses
system.cpu.icache.overall_mshr_misses::total        10184                       # number of overall MSHR misses
system.cpu.icache.ReadReq_mshr_miss_latency::switch_cpus.inst    627831003                       # number of ReadReq MSHR miss cycles
[...]
system.switch_cpus.iew.wb_fanout             0.761662                       # average fanout of values written-back
system.switch_cpus.iew.wb_penalized_rate            0                       # fraction of instructions written-back that wrote to 'other' IQ
system.switch_cpus.commit.commitSquashedInsts    273507129                       # The number of squashed insts skipped by commit
system.switch_cpus.commit.commitNonSpecStalls      3733568                       # The number of times commit has been forced to stall to communicate backwards
system.switch_cpus.commit.branchMispredicts      4222282                       # The number of times a branch was mispredicted
system.switch_cpus.commit.committed_per_cycle::samples   1223179555                       # Number of insts commited each cycle
system.switch_cpus.commit.committed_per_cycle::mean     0.134762                       # Number of insts commited each cycle
system.switch_cpus.commit.committed_per_cycle::stdev     0.732159                       # Number of insts commited each cycle
system.switch_cpus.commit.committed_per_cycle::underflows            0      0.00%      0.00% # Number of insts commited each cycle
system.switch_cpus.commit.committed_per_cycle::0   1147043104     93.78%     93.78% # Number of insts commited each cycle
system.switch_cpus.commit.committed_per_cycle::1     43746332      3.58%     97.35% # Number of insts commited each cycle
system.switch_cpus.commit.committed_per_cycle::2     18061057      1.48%     98.83% # Number of insts commited each cycle
system.switch_cpus.commit.committed_per_cycle::3      2213463      0.18%     99.01% # Number of insts commited each cycle
system.switch_cpus.commit.committed_per_cycle::4      3171123      0.26%     99.27% # Number of insts commited each cycle
system.switch_cpus.commit.committed_per_cycle::5      1136259      0.09%     99.36% # Number of insts commited each cycle
system.switch_cpus.commit.committed_per_cycle::6       329550      0.03%     99.39% # Number of insts commited each cycle
system.switch_cpus.commit.committed_per_cycle::7      1843166      0.15%     99.54% # Number of insts commited each cycle
system.switch_cpus.commit.committed_per_cycle::8      5635501      0.46%    100.00% # Number of insts commited each cycle
system.switch_cpus.commit.committed_per_cycle::overflows            0      0.00%    100.00% # Number of insts commited each cycle
system.switch_cpus.commit.committed_per_cycle::min_value            0                       # Number of insts commited each cycle
system.switch_cpus.commit.committed_per_cycle::max_value            8                       # Number of insts commited each cycle
system.switch_cpus.commit.committed_per_cycle::total   1223179555                       # Number of insts commited each cycle
system.switch_cpus.commit.committedInsts    164838092                       # Number of instructions committed
system.switch_cpus.commit.committedOps      164838092                       # Number of ops (including micro ops) committed
system.switch_cpus.commit.swp_count                 0                       # Number of s/w prefetches committed
system.switch_cpus.commit.refs               36983971                       # Number of memory references committed
system.switch_cpus.commit.loads              25474061                       # Number of loads committed
system.switch_cpus.commit.membars             2506699                       # Number of memory barriers committed
system.switch_cpus.commit.branches           23969546                       # Number of branches committed
system.switch_cpus.commit.fp_insts            8404728                       # Number of committed floating point instructions.
system.switch_cpus.commit.int_insts         137846125                       # Number of committed integer instructions.
system.switch_cpus.commit.function_calls      1943829                       # Number of function calls committed.
system.switch_cpus.commit.op_class_0::No_OpClass     12930174      7.84%      7.84% # Class of committed instruction
system.switch_cpus.commit.op_class_0::IntAlu     73106097     44.35%     52.19% # Class of committed instruction
system.switch_cpus.commit.op_class_0::IntMult        22527      0.01%     52.21% # Class of committed instruction
system.switch_cpus.commit.op_class_0::IntDiv            0      0.00%     52.21% # Class of committed instruction
system.switch_cpus.commit.op_class_0::FloatAdd      6401340      3.88%     56.09% # Class of committed instruction
system.switch_cpus.commit.op_class_0::FloatCmp            2      0.00%     56.09% # Class of committed instruction
system.switch_cpus.commit.op_class_0::FloatCvt      2000004      1.21%     57.30% # Class of committed instruction
system.switch_cpus.commit.op_class_0::FloatMult            2      0.00%     57.30% # Class of committed instruction
system.switch_cpus.commit.op_class_0::FloatDiv          245      0.00%     57.30% # Class of committed instruction
system.switch_cpus.commit.op_class_0::FloatSqrt            0      0.00%     57.30% # Class of committed instruction
system.switch_cpus.commit.op_class_0::SimdAdd            0      0.00%     57.30% # Class of committed instruction
system.switch_cpus.commit.op_class_0::SimdAddAcc            0      0.00%     57.30% # Class of committed instruction
system.switch_cpus.commit.op_class_0::SimdAlu            0      0.00%     57.30% # Class of committed instruction
system.switch_cpus.commit.op_class_0::SimdCmp            0      0.00%     57.30% # Class of committed instruction
system.switch_cpus.commit.op_class_0::SimdCvt            0      0.00%     57.30% # Class of committed instruction
system.switch_cpus.commit.op_class_0::SimdMisc            0      0.00%     57.30% # Class of committed instruction
system.switch_cpus.commit.op_class_0::SimdMult            0      0.00%     57.30% # Class of committed instruction
system.switch_cpus.commit.op_class_0::SimdMultAcc            0      0.00%     57.30% # Class of committed instruction
system.switch_cpus.commit.op_class_0::SimdShift            0      0.00%     57.30% # Class of committed instruction
system.switch_cpus.commit.op_class_0::SimdShiftAcc            0      0.00%     57.30% # Class of committed instruction
system.switch_cpus.commit.op_class_0::SimdSqrt            0      0.00%     57.30% # Class of committed instruction
system.switch_cpus.commit.op_class_0::SimdFloatAdd            0      0.00%     57.30% # Class of committed instruction
system.switch_cpus.commit.op_class_0::SimdFloatAlu            0      0.00%     57.30% # Class of committed instruction
system.switch_cpus.commit.op_class_0::SimdFloatCmp            0      0.00%     57.30% # Class of committed instruction
system.switch_cpus.commit.op_class_0::SimdFloatCvt            0      0.00%     57.30% # Class of committed instruction
system.switch_cpus.commit.op_class_0::SimdFloatDiv            0      0.00%     57.30% # Class of committed instruction
system.switch_cpus.commit.op_class_0::SimdFloatMisc            0      0.00%     57.30% # Class of committed instruction
system.switch_cpus.commit.op_class_0::SimdFloatMult            0      0.00%     57.30% # Class of committed instruction
system.switch_cpus.commit.op_class_0::SimdFloatMultAcc            0      0.00%     57.30% # Class of committed instruction
system.switch_cpus.commit.op_class_0::SimdFloatSqrt            0      0.00%     57.30% # Class of committed instruction
system.switch_cpus.commit.op_class_0::MemRead     27980760     16.97%     74.28% # Class of committed instruction
system.switch_cpus.commit.op_class_0::MemWrite     11511606      6.98%     81.26% # Class of committed instruction
system.switch_cpus.commit.op_class_0::IprAccess     30885335     18.74%    100.00% # Class of committed instruction
system.switch_cpus.commit.op_class_0::InstPrefetch            0      0.00%    100.00% # Class of committed instruction
system.switch_cpus.commit.op_class_0::total    164838092                       # Class of committed instruction
system.switch_cpus.commit.bw_lim_events       5635501                       # number cycles where commit BW limit reached
system.switch_cpus.rob.rob_reads           1615924820                       # The number of ROB reads
system.switch_cpus.rob.rob_writes           916231940                       # The number of ROB writes
system.switch_cpus.timesIdled                  138289                       # Number of times that the entire CPU went into an idle state and unscheduled itself
system.switch_cpus.idleCycles                16724688                       # Total number of cycles that the CPU has spent unscheduled due to idling
system.switch_cpus.quiesceCycles               673803                       # Total number of cycles that CPU has spent quiesced or waiting for an interrupt
system.switch_cpus.committedInsts           151908410                       # Number of Instructions Simulated
system.switch_cpus.committedOps             151908410                       # Number of Ops (including micro ops) Simulated
system.switch_cpus.cpi                       8.422479                       # CPI: Cycles Per Instruction
system.switch_cpus.cpi_total                 8.422479                       # CPI: Total CPI of All Threads
system.switch_cpus.ipc                       0.118730                       # IPC: Instructions Per Cycle
system.switch_cpus.ipc_total                 0.118730                       # IPC: Total IPC of All Threads
system.switch_cpus.int_regfile_reads        255436251                       # number of integer regfile reads
system.switch_cpus.int_regfile_writes       146882332                       # number of integer regfile writes
system.switch_cpus.fp_regfile_reads          13482873                       # number of floating regfile reads
system.switch_cpus.fp_regfile_writes          9747939                       # number of floating regfile writes
system.switch_cpus.misc_regfile_reads        30549334                       # number of misc regfile reads
system.switch_cpus.misc_regfile_writes       14979669                       # number of misc regfile writes
system.tol2bus.trans_dist::ReadReq            5524616                       # Transaction distribution
system.tol2bus.trans_dist::ReadResp           5524615                       # Transaction distribution
system.tol2bus.trans_dist::WriteReq               845                       # Transaction distribution
system.tol2bus.trans_dist::WriteResp              845                       # Transaction distribution
system.tol2bus.trans_dist::Writeback          1187223                       # Transaction distribution
system.tol2bus.trans_dist::WriteInvalidateReq         1168                       # Transaction distribution
system.tol2bus.trans_dist::UpgradeReq               5                       # Transaction distribution
system.tol2bus.trans_dist::SCUpgradeReq             2                       # Transaction distribution
system.tol2bus.trans_dist::UpgradeResp              7                       # Transaction distribution
system.tol2bus.trans_dist::ReadExReq            60361                       # Transaction distribution
system.tol2bus.trans_dist::ReadExResp           60361                       # Transaction distribution
system.tol2bus.pkt_count_system.cpu.icache.mem_side::system.l2.cpu_side        61971                       # Packet count per connected master and slave (bytes)
system.tol2bus.pkt_count_system.cpu.dcache.mem_side::system.l2.cpu_side     12296898                       # Packet count per connected master and slave (bytes)
system.tol2bus.pkt_count::total              12358869                       # Packet count per connected master and slave (bytes)
system.tol2bus.pkt_size_system.cpu.icache.mem_side::system.l2.cpu_side      1982848                       # Cumulative packet size per connected master and slave (bytes)
system.tol2bus.pkt_size_system.cpu.dcache.mem_side::system.l2.cpu_side    431417203                       # Cumulative packet size per connected master and slave (bytes)
system.tol2bus.pkt_size::total              433400051                       # Cumulative packet size per connected master and slave (bytes)
system.tol2bus.snoops                            1180                       # Total snoops (count)
system.tol2bus.snoop_fanout::samples          6774220                       # Request fanout histogram
system.tol2bus.snoop_fanout::mean            1.000173                       # Request fanout histogram
system.tol2bus.snoop_fanout::stdev           0.013147                       # Request fanout histogram
system.tol2bus.snoop_fanout::underflows             0      0.00%      0.00% # Request fanout histogram
system.tol2bus.snoop_fanout::0                      0      0.00%      0.00% # Request fanout histogram
system.tol2bus.snoop_fanout::1                6773049     99.98%     99.98% # Request fanout histogram
system.tol2bus.snoop_fanout::2                   1171      0.02%    100.00% # Request fanout histogram
system.tol2bus.snoop_fanout::overflows              0      0.00%    100.00% # Request fanout histogram
system.tol2bus.snoop_fanout::min_value              1                       # Request fanout histogram
system.tol2bus.snoop_fanout::max_value              2                       # Request fanout histogram
system.tol2bus.snoop_fanout::total            6774220                       # Request fanout histogram
system.tol2bus.reqLayer0.occupancy         4574170000                       # Layer occupancy (ticks)
system.tol2bus.reqLayer0.utilization              0.7                       # Layer utilization (%)
system.tol2bus.snoopLayer0.occupancy             1500                       # Layer occupancy (ticks)
system.tol2bus.snoopLayer0.utilization            0.0                       # Layer utilization (%)
system.tol2bus.respLayer0.occupancy          50708745                       # Layer occupancy (ticks)
system.tol2bus.respLayer0.utilization             0.0                       # Layer utilization (%)
system.tol2bus.respLayer1.occupancy        9155535968                       # Layer occupancy (ticks)
system.tol2bus.respLayer1.utilization             1.4                       # Layer utilization (%)
system.tsunami.ethernet.descDMAReads                0                       # Number of descriptors the device read w/ DMA
system.tsunami.ethernet.descDMAWrites               0                       # Number of descriptors the device wrote w/ DMA
system.tsunami.ethernet.descDmaReadBytes            0                       # number of descriptor bytes read w/ DMA
system.tsunami.ethernet.descDmaWriteBytes            0                       # number of descriptor bytes write w/ DMA
system.tsunami.ethernet.postedSwi                   0                       # number of software interrupts posted to CPU
system.tsunami.ethernet.coalescedSwi              nan                       # average number of Swi's coalesced into each post
system.tsunami.ethernet.totalSwi                    0                       # total number of Swi written to ISR
system.tsunami.ethernet.postedRxIdle                0                       # number of rxIdle interrupts posted to CPU
system.tsunami.ethernet.coalescedRxIdle           nan                       # average number of RxIdle's coalesced into each post
system.tsunami.ethernet.totalRxIdle                 0                       # total number of RxIdle written to ISR
system.tsunami.ethernet.postedRxOk                  0                       # number of RxOk interrupts posted to CPU
system.tsunami.ethernet.coalescedRxOk             nan                       # average number of RxOk's coalesced into each post
system.tsunami.ethernet.totalRxOk                   0                       # total number of RxOk written to ISR
system.tsunami.ethernet.postedRxDesc                0                       # number of RxDesc interrupts posted to CPU
system.tsunami.ethernet.coalescedRxDesc           nan                       # average number of RxDesc's coalesced into each post
system.tsunami.ethernet.totalRxDesc                 0                       # total number of RxDesc written to ISR
system.tsunami.ethernet.postedTxOk                  0                       # number of TxOk interrupts posted to CPU
system.tsunami.ethernet.coalescedTxOk             nan                       # average number of TxOk's coalesced into each post
system.tsunami.ethernet.totalTxOk                   0                       # total number of TxOk written to ISR
system.tsunami.ethernet.postedTxIdle                0                       # number of TxIdle interrupts posted to CPU
system.tsunami.ethernet.coalescedTxIdle           nan                       # average number of TxIdle's coalesced into each post
system.tsunami.ethernet.totalTxIdle                 0                       # total number of TxIdle written to ISR
system.tsunami.ethernet.postedTxDesc                0                       # number of TxDesc interrupts posted to CPU
system.tsunami.ethernet.coalescedTxDesc           nan                       # average number of TxDesc's coalesced into each post
system.tsunami.ethernet.totalTxDesc                 0                       # total number of TxDesc written to ISR
system.tsunami.ethernet.postedRxOrn                 0                       # number of RxOrn posted to CPU
system.tsunami.ethernet.coalescedRxOrn            nan                       # average number of RxOrn's coalesced into each post
system.tsunami.ethernet.totalRxOrn                  0                       # total number of RxOrn written to ISR
system.tsunami.ethernet.coalescedTotal            nan                       # average number of interrupts coalesced into each post
system.tsunami.ethernet.postedInterrupts            0                       # number of posts to CPU
system.tsunami.ethernet.droppedPackets              0                       # number of packets dropped
system.switch_cpus.kern.inst.arm                    0                       # number of arm instructions executed
system.switch_cpus.kern.inst.quiesce                0                       # number of quiesce instructions executed
system.switch_cpus.kern.inst.hwrei                  0                       # number of hwrei instructions executed
system.switch_cpus.kern.mode_switch::kernel            0                       # number of protection mode switches
system.switch_cpus.kern.mode_switch::user            0                       # number of protection mode switches
system.switch_cpus.kern.mode_switch::idle            0                       # number of protection mode switches
system.switch_cpus.kern.mode_good::kernel            0                      
system.switch_cpus.kern.mode_good::user             0                      
system.switch_cpus.kern.mode_good::idle             0                      
system.switch_cpus.kern.mode_switch_good::kernel          nan                       # fraction of useful protection mode switches
system.switch_cpus.kern.mode_switch_good::user          nan                       # fraction of useful protection mode switches
system.switch_cpus.kern.mode_switch_good::idle          nan                       # fraction of useful protection mode switches
system.switch_cpus.kern.mode_switch_good::total          nan                       # fraction of useful protection mode switches
system.switch_cpus.kern.mode_ticks::kernel            0                       # number of ticks spent at the given mode
system.switch_cpus.kern.mode_ticks::user            0                       # number of ticks spent at the given mode
system.switch_cpus.kern.mode_ticks::idle            0                       # number of ticks spent at the given mode
system.switch_cpus.kern.swap_context                0                       # number of times the context was actually changed

---------- End Simulation Statistics   ----------
