
---------- Begin Simulation Statistics ----------
sim_seconds                                  0.000744                       # Number of seconds simulated
sim_ticks                                   743892000                       # Number of ticks simulated
final_tick                               2261996915500                       # Number of ticks from beginning of simulation (restored from checkpoints and never reset)
sim_freq                                 1000000000000                       # Frequency of simulated ticks
host_inst_rate                               42589361                       # Simulator instruction rate (inst/s)
host_op_rate                                 42589237                       # Simulator op (including micro ops) rate (op/s)
host_tick_rate                              268755977                       # Simulator tick rate (ticks/s)
host_mem_usage                                 740780                       # Number of bytes of host memory used
host_seconds                                     2.77                       # Real time elapsed on the host
sim_insts                                   117882813                       # Number of instructions simulated
sim_ops                                     117882813                       # Number of ops (including micro ops) simulated
system.voltage_domain.voltage                       1                       # Voltage in Volts
system.clk_domain.clock                          1000                       # Clock period in ticks
system.mem_ctrls.bytes_read::switch_cpus0.inst        72576                       # Number of bytes read from this memory
system.mem_ctrls.bytes_read::switch_cpus0.data        61312                       # Number of bytes read from this memory
system.mem_ctrls.bytes_read::switch_cpus1.inst        15872                       # Number of bytes read from this memory
system.mem_ctrls.bytes_read::switch_cpus1.data        49664                       # Number of bytes read from this memory
system.mem_ctrls.bytes_read::switch_cpus2.inst         1984                       # Number of bytes read from this memory
system.mem_ctrls.bytes_read::switch_cpus2.data         1408                       # Number of bytes read from this memory
system.mem_ctrls.bytes_read::switch_cpus3.inst        54080                       # Number of bytes read from this memory
system.mem_ctrls.bytes_read::switch_cpus3.data       451456                       # Number of bytes read from this memory
system.mem_ctrls.bytes_read::total             708352                       # Number of bytes read from this memory
system.mem_ctrls.bytes_inst_read::switch_cpus0.inst        72576                       # Number of instructions bytes read from this memory
system.mem_ctrls.bytes_inst_read::switch_cpus1.inst        15872                       # Number of instructions bytes read from this memory
system.mem_ctrls.bytes_inst_read::switch_cpus2.inst         1984                       # Number of instructions bytes read from this memory
system.mem_ctrls.bytes_inst_read::switch_cpus3.inst        54080                       # Number of instructions bytes read from this memory
system.mem_ctrls.bytes_inst_read::total        144512                       # Number of instructions bytes read from this memory
system.mem_ctrls.bytes_written::writebacks       407296                       # Number of bytes written to this memory
system.mem_ctrls.bytes_written::total          407296                       # Number of bytes written to this memory
system.mem_ctrls.num_reads::switch_cpus0.inst         1134                       # Number of read requests responded to by this memory
system.mem_ctrls.num_reads::switch_cpus0.data          958                       # Number of read requests responded to by this memory
system.mem_ctrls.num_reads::switch_cpus1.inst          248                       # Number of read requests responded to by this memory
system.mem_ctrls.num_reads::switch_cpus1.data          776                       # Number of read requests responded to by this memory
system.mem_ctrls.num_reads::switch_cpus2.inst           31                       # Number of read requests responded to by this memory
system.mem_ctrls.num_reads::switch_cpus2.data           22                       # Number of read requests responded to by this memory
system.mem_ctrls.num_reads::switch_cpus3.inst          845                       # Number of read requests responded to by this memory
system.mem_ctrls.num_reads::switch_cpus3.data         7054                       # Number of read requests responded to by this memory
system.mem_ctrls.num_reads::total               11068                       # Number of read requests responded to by this memory
system.mem_ctrls.num_writes::writebacks          6364                       # Number of write requests responded to by this memory
system.mem_ctrls.num_writes::total               6364                       # Number of write requests responded to by this memory
system.mem_ctrls.bw_read::switch_cpus0.inst     97562549                       # Total read bandwidth from this memory (bytes/s)
system.mem_ctrls.bw_read::switch_cpus0.data     82420566                       # Total read bandwidth from this memory (bytes/s)
system.mem_ctrls.bw_read::switch_cpus1.inst     21336431                       # Total read bandwidth from this memory (bytes/s)
system.mem_ctrls.bw_read::switch_cpus1.data     66762379                       # Total read bandwidth from this memory (bytes/s)
system.mem_ctrls.bw_read::switch_cpus2.inst      2667054                       # Total read bandwidth from this memory (bytes/s)
system.mem_ctrls.bw_read::switch_cpus2.data      1892748                       # Total read bandwidth from this memory (bytes/s)
system.mem_ctrls.bw_read::switch_cpus3.inst     72698725                       # Total read bandwidth from this memory (bytes/s)
system.mem_ctrls.bw_read::switch_cpus3.data    606883795                       # Total read bandwidth from this memory (bytes/s)
system.mem_ctrls.bw_read::total             952224248                       # Total read bandwidth from this memory (bytes/s)
system.mem_ctrls.bw_inst_read::switch_cpus0.inst     97562549                       # Instruction read bandwidth from this memory (bytes/s)
system.mem_ctrls.bw_inst_read::switch_cpus1.inst     21336431                       # Instruction read bandwidth from this memory (bytes/s)
system.mem_ctrls.bw_inst_read::switch_cpus2.inst      2667054                       # Instruction read bandwidth from this memory (bytes/s)
system.mem_ctrls.bw_inst_read::switch_cpus3.inst     72698725                       # Instruction read bandwidth from this memory (bytes/s)
system.mem_ctrls.bw_inst_read::total        194264759                       # Instruction read bandwidth from this memory (bytes/s)
system.mem_ctrls.bw_write::writebacks       547520339                       # Write bandwidth from this memory (bytes/s)
system.mem_ctrls.bw_write::total            547520339                       # Write bandwidth from this memory (bytes/s)
system.mem_ctrls.bw_total::writebacks       547520339                       # Total bandwidth to/from this memory (bytes/s)
system.mem_ctrls.bw_total::switch_cpus0.inst     97562549                       # Total bandwidth to/from this memory (bytes/s)
system.mem_ctrls.bw_total::switch_cpus0.data     82420566                       # Total bandwidth to/from this memory (bytes/s)
system.mem_ctrls.bw_total::switch_cpus1.inst     21336431                       # Total bandwidth to/from this memory (bytes/s)
system.mem_ctrls.bw_total::switch_cpus1.data     66762379                       # Total bandwidth to/from this memory (bytes/s)
system.mem_ctrls.bw_total::switch_cpus2.inst      2667054                       # Total bandwidth to/from this memory (bytes/s)
system.mem_ctrls.bw_total::switch_cpus2.data      1892748                       # Total bandwidth to/from this memory (bytes/s)
system.mem_ctrls.bw_total::switch_cpus3.inst     72698725                       # Total bandwidth to/from this memory (bytes/s)
system.mem_ctrls.bw_total::switch_cpus3.data    606883795                       # Total bandwidth to/from this memory (bytes/s)
system.mem_ctrls.bw_total::total           1499744587                       # Total bandwidth to/from this memory (bytes/s)
system.mem_ctrls.readReqs                       11068                       # Number of read requests accepted
system.mem_ctrls.writeReqs                       6364                       # Number of write requests accepted
system.mem_ctrls.readBursts                     11068                       # Number of DRAM read bursts, including those serviced by the write queue
system.mem_ctrls.writeBursts                     6364                       # Number of DRAM write bursts, including those merged in the write queue
system.mem_ctrls.bytesReadDRAM                 707456                       # Total number of bytes read from DRAM
system.mem_ctrls.bytesReadWrQ                     896                       # Total number of bytes read from write queue
system.mem_ctrls.bytesWritten                  405248                       # Total number of bytes written to DRAM
system.mem_ctrls.bytesReadSys                  708352                       # Total read bytes from the system interface side
system.mem_ctrls.bytesWrittenSys               407296                       # Total written bytes from the system interface side
system.mem_ctrls.servicedByWrQ                     14                       # Number of DRAM read bursts serviced by the write queue
system.mem_ctrls.mergedWrBursts                     0                       # Number of DRAM write bursts merged with an existing one
system.mem_ctrls.neitherReadNorWriteReqs           79                       # Number of requests that are neither read nor write
system.mem_ctrls.perBankRdBursts::0               486                       # Per bank write bursts
system.mem_ctrls.perBankRdBursts::1               782                       # Per bank write bursts
system.mem_ctrls.perBankRdBursts::2               507                       # Per bank write bursts
system.mem_ctrls.perBankRdBursts::3               396                       # Per bank write bursts
system.mem_ctrls.perBankRdBursts::4               389                       # Per bank write bursts
system.mem_ctrls.perBankRdBursts::5               812                       # Per bank write bursts
system.mem_ctrls.perBankRdBursts::6               736                       # Per bank write bursts
system.mem_ctrls.perBankRdBursts::7               746                       # Per bank write bursts
system.mem_ctrls.perBankRdBursts::8               491                       # Per bank write bursts
system.mem_ctrls.perBankRdBursts::9              1106                       # Per bank write bursts
system.mem_ctrls.perBankRdBursts::10              378                       # Per bank write bursts
system.mem_ctrls.perBankRdBursts::11              724                       # Per bank write bursts
system.mem_ctrls.perBankRdBursts::12              938                       # Per bank write bursts
system.mem_ctrls.perBankRdBursts::13              872                       # Per bank write bursts
system.mem_ctrls.perBankRdBursts::14              945                       # Per bank write bursts
system.mem_ctrls.perBankRdBursts::15              746                       # Per bank write bursts
system.mem_ctrls.perBankWrBursts::0               331                       # Per bank write bursts
system.mem_ctrls.perBankWrBursts::1               528                       # Per bank write bursts
system.mem_ctrls.perBankWrBursts::2                36                       # Per bank write bursts
system.mem_ctrls.perBankWrBursts::3               466                       # Per bank write bursts
system.mem_ctrls.perBankWrBursts::4               295                       # Per bank write bursts
system.mem_ctrls.perBankWrBursts::5               402                       # Per bank write bursts
system.mem_ctrls.perBankWrBursts::6               492                       # Per bank write bursts
system.mem_ctrls.perBankWrBursts::7               651                       # Per bank write bursts
system.mem_ctrls.perBankWrBursts::8               249                       # Per bank write bursts
system.mem_ctrls.perBankWrBursts::9               454                       # Per bank write bursts
system.mem_ctrls.perBankWrBursts::10              408                       # Per bank write bursts
system.mem_ctrls.perBankWrBursts::11              210                       # Per bank write bursts
system.mem_ctrls.perBankWrBursts::12              406                       # Per bank write bursts
system.mem_ctrls.perBankWrBursts::13              496                       # Per bank write bursts
system.mem_ctrls.perBankWrBursts::14              567                       # Per bank write bursts
system.mem_ctrls.perBankWrBursts::15              341                       # Per bank write bursts
system.mem_ctrls.numRdRetry                         0                       # Number of times read queue was full causing retry
system.mem_ctrls.numWrRetry                         0                       # Number of times write queue was full causing retry
system.mem_ctrls.totGap                     741585500                       # Total gap between requests
system.mem_ctrls.readPktSize::0                     0                       # Read request sizes (log2)
system.mem_ctrls.readPktSize::1                     0                       # Read request sizes (log2)
system.mem_ctrls.readPktSize::2                     0                       # Read request sizes (log2)
system.mem_ctrls.readPktSize::3                     0                       # Read request sizes (log2)
system.mem_ctrls.readPktSize::4                     0                       # Read request sizes (log2)
system.mem_ctrls.readPktSize::5                     0                       # Read request sizes (log2)
system.mem_ctrls.readPktSize::6                 11068                       # Read request sizes (log2)
system.mem_ctrls.writePktSize::0                    0                       # Write request sizes (log2)
system.mem_ctrls.writePktSize::1                    0                       # Write request sizes (log2)
system.mem_ctrls.writePktSize::2                    0                       # Write request sizes (log2)
system.mem_ctrls.writePktSize::3                    0                       # Write request sizes (log2)
system.mem_ctrls.writePktSize::4                    0                       # Write request sizes (log2)
system.mem_ctrls.writePktSize::5                    0                       # Write request sizes (log2)
system.mem_ctrls.writePktSize::6                 6364                       # Write request sizes (log2)
system.mem_ctrls.rdQLenPdf::0                    4972                       # What read queue length does an incoming req see
system.mem_ctrls.rdQLenPdf::1                    2914                       # What read queue length does an incoming req see
system.mem_ctrls.rdQLenPdf::2                    1821                       # What read queue length does an incoming req see
system.mem_ctrls.rdQLenPdf::3                    1318                       # What read queue length does an incoming req see
system.mem_ctrls.rdQLenPdf::4                      18                       # What read queue length does an incoming req see
system.mem_ctrls.rdQLenPdf::5                       4                       # What read queue length does an incoming req see
system.mem_ctrls.rdQLenPdf::6                       4                       # What read queue length does an incoming req see
system.mem_ctrls.rdQLenPdf::7                       1                       # What read queue length does an incoming req see
system.mem_ctrls.rdQLenPdf::8                       2                       # What read queue length does an incoming req see
system.mem_ctrls.rdQLenPdf::9                       0                       # What read queue length does an incoming req see
system.mem_ctrls.rdQLenPdf::10                      0                       # What read queue length does an incoming req see
system.mem_ctrls.rdQLenPdf::11                      0                       # What read queue length does an incoming req see
system.mem_ctrls.rdQLenPdf::12                      0                       # What read queue length does an incoming req see
system.mem_ctrls.rdQLenPdf::13                      0                       # What read queue length does an incoming req see
system.mem_ctrls.rdQLenPdf::14                      0                       # What read queue length does an incoming req see
system.mem_ctrls.rdQLenPdf::15                      0                       # What read queue length does an incoming req see
system.mem_ctrls.rdQLenPdf::16                      0                       # What read queue length does an incoming req see
system.mem_ctrls.rdQLenPdf::17                      0                       # What read queue length does an incoming req see
system.mem_ctrls.rdQLenPdf::18                      0                       # What read queue length does an incoming req see
system.mem_ctrls.rdQLenPdf::19                      0                       # What read queue length does an incoming req see
system.mem_ctrls.rdQLenPdf::20                      0                       # What read queue length does an incoming req see
system.mem_ctrls.rdQLenPdf::21                      0                       # What read queue length does an incoming req see
system.mem_ctrls.rdQLenPdf::22                      0                       # What read queue length does an incoming req see
system.mem_ctrls.rdQLenPdf::23                      0                       # What read queue length does an incoming req see
system.mem_ctrls.rdQLenPdf::24                      0                       # What read queue length does an incoming req see
system.mem_ctrls.rdQLenPdf::25                      0                       # What read queue length does an incoming req see
system.mem_ctrls.rdQLenPdf::26                      0                       # What read queue length does an incoming req see
system.mem_ctrls.rdQLenPdf::27                      0                       # What read queue length does an incoming req see
system.mem_ctrls.rdQLenPdf::28                      0                       # What read queue length does an incoming req see
system.mem_ctrls.rdQLenPdf::29                      0                       # What read queue length does an incoming req see
system.mem_ctrls.rdQLenPdf::30                      0                       # What read queue length does an incoming req see
system.mem_ctrls.rdQLenPdf::31                      0                       # What read queue length does an incoming req see
system.mem_ctrls.wrQLenPdf::0                       1                       # What write queue length does an incoming req see
system.mem_ctrls.wrQLenPdf::1                       1                       # What write queue length does an incoming req see
system.mem_ctrls.wrQLenPdf::2                       1                       # What write queue length does an incoming req see
system.mem_ctrls.wrQLenPdf::3                       1                       # What write queue length does an incoming req see
system.mem_ctrls.wrQLenPdf::4                       1                       # What write queue length does an incoming req see
system.mem_ctrls.wrQLenPdf::5                       1                       # What write queue length does an incoming req see
system.mem_ctrls.wrQLenPdf::6                       1                       # What write queue length does an incoming req see
system.mem_ctrls.wrQLenPdf::7                       1                       # What write queue length does an incoming req see
system.mem_ctrls.wrQLenPdf::8                       1                       # What write queue length does an incoming req see
system.mem_ctrls.wrQLenPdf::9                       1                       # What write queue length does an incoming req see
system.mem_ctrls.wrQLenPdf::10                      1                       # What write queue length does an incoming req see
system.mem_ctrls.wrQLenPdf::11                      1                       # What write queue length does an incoming req see
system.mem_ctrls.wrQLenPdf::12                      1                       # What write queue length does an incoming req see
system.mem_ctrls.wrQLenPdf::13                      1                       # What write queue length does an incoming req see
system.mem_ctrls.wrQLenPdf::14                      1                       # What write queue length does an incoming req see
system.mem_ctrls.wrQLenPdf::15                     47                       # What write queue length does an incoming req see
system.mem_ctrls.wrQLenPdf::16                     48                       # What write queue length does an incoming req see
system.mem_ctrls.wrQLenPdf::17                    185                       # What write queue length does an incoming req see
system.mem_ctrls.wrQLenPdf::18                    285                       # What write queue length does an incoming req see
system.mem_ctrls.wrQLenPdf::19                    349                       # What write queue length does an incoming req see
system.mem_ctrls.wrQLenPdf::20                    394                       # What write queue length does an incoming req see
system.mem_ctrls.wrQLenPdf::21                    391                       # What write queue length does an incoming req see
system.mem_ctrls.wrQLenPdf::22                    403                       # What write queue length does an incoming req see
system.mem_ctrls.wrQLenPdf::23                    406                       # What write queue length does an incoming req see
system.mem_ctrls.wrQLenPdf::24                    406                       # What write queue length does an incoming req see
system.mem_ctrls.wrQLenPdf::25                    418                       # What write queue length does an incoming req see
system.mem_ctrls.wrQLenPdf::26                    474                       # What write queue length does an incoming req see
system.mem_ctrls.wrQLenPdf::27                    431                       # What write queue length does an incoming req see
system.mem_ctrls.wrQLenPdf::28                    423                       # What write queue length does an incoming req see
system.mem_ctrls.wrQLenPdf::29                    490                       # What write queue length does an incoming req see
system.mem_ctrls.wrQLenPdf::30                    402                       # What write queue length does an incoming req see
system.mem_ctrls.wrQLenPdf::31                    398                       # What write queue length does an incoming req see
system.mem_ctrls.wrQLenPdf::32                    390                       # What write queue length does an incoming req see
system.mem_ctrls.wrQLenPdf::33                      7                       # What write queue length does an incoming req see
system.mem_ctrls.wrQLenPdf::34                      1                       # What write queue length does an incoming req see
system.mem_ctrls.wrQLenPdf::35                      1                       # What write queue length does an incoming req see
system.mem_ctrls.wrQLenPdf::36                      0                       # What write queue length does an incoming req see
system.mem_ctrls.wrQLenPdf::37                      0                       # What write queue length does an incoming req see
system.mem_ctrls.wrQLenPdf::38                      0                       # What write queue length does an incoming req see
system.mem_ctrls.wrQLenPdf::39                      0                       # What write queue length does an incoming req see
system.mem_ctrls.wrQLenPdf::40                      0                       # What write queue length does an incoming req see
system.mem_ctrls.wrQLenPdf::41                      0                       # What write queue length does an incoming req see
system.mem_ctrls.wrQLenPdf::42                      0                       # What write queue length does an incoming req see
system.mem_ctrls.wrQLenPdf::43                      0                       # What write queue length does an incoming req see
system.mem_ctrls.wrQLenPdf::44                      0                       # What write queue length does an incoming req see
system.mem_ctrls.wrQLenPdf::45                      0                       # What write queue length does an incoming req see
system.mem_ctrls.wrQLenPdf::46                      0                       # What write queue length does an incoming req see
system.mem_ctrls.wrQLenPdf::47                      0                       # What write queue length does an incoming req see
system.mem_ctrls.wrQLenPdf::48                      0                       # What write queue length does an incoming req see
system.mem_ctrls.wrQLenPdf::49                      0                       # What write queue length does an incoming req see
system.mem_ctrls.wrQLenPdf::50                      0                       # What write queue length does an incoming req see
system.mem_ctrls.wrQLenPdf::51                      0                       # What write queue length does an incoming req see
system.mem_ctrls.wrQLenPdf::52                      0                       # What write queue length does an incoming req see
system.mem_ctrls.wrQLenPdf::53                      0                       # What write queue length does an incoming req see
system.mem_ctrls.wrQLenPdf::54                      0                       # What write queue length does an incoming req see
system.mem_ctrls.wrQLenPdf::55                      0                       # What write queue length does an incoming req see
system.mem_ctrls.wrQLenPdf::56                      0                       # What write queue length does an incoming req see
system.mem_ctrls.wrQLenPdf::57                      0                       # What write queue length does an incoming req see
system.mem_ctrls.wrQLenPdf::58                      0                       # What write queue length does an incoming req see
system.mem_ctrls.wrQLenPdf::59                      0                       # What write queue length does an incoming req see
system.mem_ctrls.wrQLenPdf::60                      0                       # What write queue length does an incoming req see
system.mem_ctrls.wrQLenPdf::61                      0                       # What write queue length does an incoming req see
system.mem_ctrls.wrQLenPdf::62                      0                       # What write queue length does an incoming req see
system.mem_ctrls.wrQLenPdf::63                      0                       # What write queue length does an incoming req see
system.mem_ctrls.bytesPerActivate::samples         4114                       # Bytes accessed per row activation
system.mem_ctrls.bytesPerActivate::mean    270.389888                       # Bytes accessed per row activation
system.mem_ctrls.bytesPerActivate::gmean   165.162445                       # Bytes accessed per row activation
system.mem_ctrls.bytesPerActivate::stdev   295.493863                       # Bytes accessed per row activation
system.mem_ctrls.bytesPerActivate::0-127         1607     39.06%     39.06% # Bytes accessed per row activation
system.mem_ctrls.bytesPerActivate::128-255         1055     25.64%     64.71% # Bytes accessed per row activation
system.mem_ctrls.bytesPerActivate::256-383          477     11.59%     76.30% # Bytes accessed per row activation
system.mem_ctrls.bytesPerActivate::384-511          226      5.49%     81.79% # Bytes accessed per row activation
system.mem_ctrls.bytesPerActivate::512-639          183      4.45%     86.24% # Bytes accessed per row activation
system.mem_ctrls.bytesPerActivate::640-767           75      1.82%     88.07% # Bytes accessed per row activation
system.mem_ctrls.bytesPerActivate::768-895           98      2.38%     90.45% # Bytes accessed per row activation
system.mem_ctrls.bytesPerActivate::896-1023           41      1.00%     91.44% # Bytes accessed per row activation
system.mem_ctrls.bytesPerActivate::1024-1151          352      8.56%    100.00% # Bytes accessed per row activation
system.mem_ctrls.bytesPerActivate::total         4114                       # Bytes accessed per row activation
system.mem_ctrls.rdPerTurnAround::samples          389                       # Reads before turning the bus around for writes
system.mem_ctrls.rdPerTurnAround::mean      28.372751                       # Reads before turning the bus around for writes
system.mem_ctrls.rdPerTurnAround::gmean     25.444492                       # Reads before turning the bus around for writes
system.mem_ctrls.rdPerTurnAround::stdev     15.530229                       # Reads before turning the bus around for writes
system.mem_ctrls.rdPerTurnAround::8-11              6      1.54%      1.54% # Reads before turning the bus around for writes
system.mem_ctrls.rdPerTurnAround::12-15            20      5.14%      6.68% # Reads before turning the bus around for writes
system.mem_ctrls.rdPerTurnAround::16-19            70     17.99%     24.68% # Reads before turning the bus around for writes
system.mem_ctrls.rdPerTurnAround::20-23            78     20.05%     44.73% # Reads before turning the bus around for writes
system.mem_ctrls.rdPerTurnAround::24-27            66     16.97%     61.70% # Reads before turning the bus around for writes
system.mem_ctrls.rdPerTurnAround::28-31            47     12.08%     73.78% # Reads before turning the bus around for writes
system.mem_ctrls.rdPerTurnAround::32-35            30      7.71%     81.49% # Reads before turning the bus around for writes
system.mem_ctrls.rdPerTurnAround::36-39            12      3.08%     84.58% # Reads before turning the bus around for writes
system.mem_ctrls.rdPerTurnAround::40-43             8      2.06%     86.63% # Reads before turning the bus around for writes
system.mem_ctrls.rdPerTurnAround::44-47            12      3.08%     89.72% # Reads before turning the bus around for writes
system.mem_ctrls.rdPerTurnAround::48-51            10      2.57%     92.29% # Reads before turning the bus around for writes
system.mem_ctrls.rdPerTurnAround::52-55             5      1.29%     93.57% # Reads before turning the bus around for writes
system.mem_ctrls.rdPerTurnAround::56-59             6      1.54%     95.12% # Reads before turning the bus around for writes
system.mem_ctrls.rdPerTurnAround::60-63             3      0.77%     95.89% # Reads before turning the bus around for writes
system.mem_ctrls.rdPerTurnAround::64-67             3      0.77%     96.66% # Reads before turning the bus around for writes
system.mem_ctrls.rdPerTurnAround::68-71             2      0.51%     97.17% # Reads before turning the bus around for writes
system.mem_ctrls.rdPerTurnAround::76-79             1      0.26%     97.43% # Reads before turning the bus around for writes
system.mem_ctrls.rdPerTurnAround::80-83             1      0.26%     97.69% # Reads before turning the bus around for writes
system.mem_ctrls.rdPerTurnAround::84-87             4      1.03%     98.71% # Reads before turning the bus around for writes
system.mem_ctrls.rdPerTurnAround::88-91             1      0.26%     98.97% # Reads before turning the bus around for writes
system.mem_ctrls.rdPerTurnAround::92-95             1      0.26%     99.23% # Reads before turning the bus around for writes
system.mem_ctrls.rdPerTurnAround::96-99             1      0.26%     99.49% # Reads before turning the bus around for writes
system.mem_ctrls.rdPerTurnAround::104-107            1      0.26%     99.74% # Reads before turning the bus around for writes
system.mem_ctrls.rdPerTurnAround::112-115            1      0.26%    100.00% # Reads before turning the bus around for writes
system.mem_ctrls.rdPerTurnAround::total           389                       # Reads before turning the bus around for writes
system.mem_ctrls.wrPerTurnAround::samples          389                       # Writes before turning the bus around for reads
system.mem_ctrls.wrPerTurnAround::mean      16.277635                       # Writes before turning the bus around for reads
system.mem_ctrls.wrPerTurnAround::gmean     16.261249                       # Writes before turning the bus around for reads
system.mem_ctrls.wrPerTurnAround::stdev      0.759842                       # Writes before turning the bus around for reads
system.mem_ctrls.wrPerTurnAround::16              340     87.40%     87.40% # Writes before turning the bus around for reads
system.mem_ctrls.wrPerTurnAround::17                2      0.51%     87.92% # Writes before turning the bus around for reads
system.mem_ctrls.wrPerTurnAround::18               37      9.51%     97.43% # Writes before turning the bus around for reads
system.mem_ctrls.wrPerTurnAround::19                8      2.06%     99.49% # Writes before turning the bus around for reads
system.mem_ctrls.wrPerTurnAround::20                2      0.51%    100.00% # Writes before turning the bus around for reads
system.mem_ctrls.wrPerTurnAround::total           389                       # Writes before turning the bus around for reads
system.mem_ctrls.totQLat                    229223750                       # Total ticks spent queuing
system.mem_ctrls.totMemAccLat               436486250                       # Total ticks spent from burst creation until serviced by the DRAM
system.mem_ctrls.totBusLat                   55270000                       # Total ticks spent in databus transfers
system.mem_ctrls.avgQLat                     20736.72                       # Average queueing delay per DRAM burst
system.mem_ctrls.avgBusLat                    5000.00                       # Average bus latency per DRAM burst
system.mem_ctrls.avgMemAccLat                39486.72                       # Average memory access latency per DRAM burst
system.mem_ctrls.avgRdBW                       951.02                       # Average DRAM read bandwidth in MiByte/s
system.mem_ctrls.avgWrBW                       544.77                       # Average achieved write bandwidth in MiByte/s
system.mem_ctrls.avgRdBWSys                    952.22                       # Average system read bandwidth in MiByte/s
system.mem_ctrls.avgWrBWSys                    547.52                       # Average system write bandwidth in MiByte/s
system.mem_ctrls.peakBW                      12800.00                       # Theoretical peak bandwidth in MiByte/s
system.mem_ctrls.busUtil                        11.69                       # Data bus utilization in percentage
system.mem_ctrls.busUtilRead                     7.43                       # Data bus utilization in percentage for reads
system.mem_ctrls.busUtilWrite                    4.26                       # Data bus utilization in percentage for writes
system.mem_ctrls.avgRdQLen                       1.85                       # Average read queue length when enqueuing
system.mem_ctrls.avgWrQLen                      26.05                       # Average write queue length when enqueuing
system.mem_ctrls.readRowHits                     9034                       # Number of row buffer hits during reads
system.mem_ctrls.writeRowHits                    4234                       # Number of row buffer hits during writes
system.mem_ctrls.readRowHitRate                 81.73                       # Row buffer hit rate for reads
system.mem_ctrls.writeRowHitRate                66.53                       # Row buffer hit rate for writes
system.mem_ctrls.avgGap                      42541.62                       # Average gap between requests
system.mem_ctrls.pageHitRate                    76.17                       # Row buffer hit rate, read and write combined
system.mem_ctrls_0.actEnergy                 15059520                       # Energy for activate commands per rank (pJ)
system.mem_ctrls_0.preEnergy                  8217000                       # Energy for precharge commands per rank (pJ)
system.mem_ctrls_0.readEnergy                37853400                       # Energy for read commands per rank (pJ)
system.mem_ctrls_0.writeEnergy               20742480                       # Energy for write commands per rank (pJ)
system.mem_ctrls_0.refreshEnergy             48313200                       # Energy for refresh commands per rank (pJ)
system.mem_ctrls_0.actBackEnergy            460177245                       # Energy for active background per rank (pJ)
system.mem_ctrls_0.preBackEnergy             40308000                       # Energy for precharge background per rank (pJ)
system.mem_ctrls_0.totalEnergy              630670845                       # Total energy per rank (pJ)
system.mem_ctrls_0.averagePower            852.311168                       # Core power per rank (mW)
system.mem_ctrls_0.memoryStateTime::IDLE     64951250                       # Time in different power states
system.mem_ctrls_0.memoryStateTime::REF      24700000                       # Time in different power states
system.mem_ctrls_0.memoryStateTime::PRE_PDN            0                       # Time in different power states
system.mem_ctrls_0.memoryStateTime::ACT     651712750                       # Time in different power states
system.mem_ctrls_0.memoryStateTime::ACT_PDN            0                       # Time in different power states
system.mem_ctrls_1.actEnergy                 16042320                       # Energy for activate commands per rank (pJ)
system.mem_ctrls_1.preEnergy                  8753250                       # Energy for precharge commands per rank (pJ)
system.mem_ctrls_1.readEnergy                48328800                       # Energy for read commands per rank (pJ)
system.mem_ctrls_1.writeEnergy               20288880                       # Energy for write commands per rank (pJ)
system.mem_ctrls_1.refreshEnergy             48313200                       # Energy for refresh commands per rank (pJ)
system.mem_ctrls_1.actBackEnergy            463904190                       # Energy for active background per rank (pJ)
system.mem_ctrls_1.preBackEnergy             37038750                       # Energy for precharge background per rank (pJ)
system.mem_ctrls_1.totalEnergy              642669390                       # Total energy per rank (pJ)
system.mem_ctrls_1.averagePower            868.526432                       # Core power per rank (mW)
system.mem_ctrls_1.memoryStateTime::IDLE     58937250                       # Time in different power states
system.mem_ctrls_1.memoryStateTime::REF      24700000                       # Time in different power states
system.mem_ctrls_1.memoryStateTime::PRE_PDN            0                       # Time in different power states
system.mem_ctrls_1.memoryStateTime::ACT     656804250                       # Time in different power states
system.mem_ctrls_1.memoryStateTime::ACT_PDN            0                       # Time in different power states
system.cpu_voltage_domain.voltage                   1                       # Voltage in Volts
system.cpu_clk_domain.clock                       500                       # Clock period in ticks
system.cpu0.dtb.fetch_hits                          0                       # ITB hits
system.cpu0.dtb.fetch_misses                        0                       # ITB misses
system.cpu0.dtb.fetch_acv                           0                       # ITB acv
system.cpu0.dtb.fetch_accesses                      0                       # ITB accesses
system.cpu0.dtb.read_hits                           0                       # DTB read hits
system.cpu0.dtb.read_misses                         0                       # DTB read misses
system.cpu0.dtb.read_acv                            0                       # DTB read access violations
system.cpu0.dtb.read_accesses                       0                       # DTB read accesses
system.cpu0.dtb.write_hits                          0                       # DTB write hits
system.cpu0.dtb.write_misses                        0                       # DTB write misses
system.cpu0.dtb.write_acv                           0                       # DTB write access violations
system.cpu0.dtb.write_accesses                      0                       # DTB write accesses
system.cpu0.dtb.data_hits                           0                       # DTB hits
system.cpu0.dtb.data_misses                         0                       # DTB misses
system.cpu0.dtb.data_acv                            0                       # DTB access violations
system.cpu0.dtb.data_accesses                       0                       # DTB accesses
system.cpu0.itb.fetch_hits                          0                       # ITB hits
system.cpu0.itb.fetch_misses                        0                       # ITB misses
system.cpu0.itb.fetch_acv                           0                       # ITB acv
system.cpu0.itb.fetch_accesses                      0                       # ITB accesses
system.cpu0.itb.read_hits                           0                       # DTB read hits
system.cpu0.itb.read_misses                         0                       # DTB read misses
system.cpu0.itb.read_acv                            0                       # DTB read access violations
system.cpu0.itb.read_accesses                       0                       # DTB read accesses
system.cpu0.itb.write_hits                          0                       # DTB write hits
system.cpu0.itb.write_misses                        0                       # DTB write misses
system.cpu0.itb.write_acv                           0                       # DTB write access violations
system.cpu0.itb.write_accesses                      0                       # DTB write accesses
system.cpu0.itb.data_hits                           0                       # DTB hits
system.cpu0.itb.data_misses                         0                       # DTB misses
system.cpu0.itb.data_acv                            0                       # DTB access violations
system.cpu0.itb.data_accesses                       0                       # DTB accesses
system.cpu0.numCycles                               0                       # number of cpu cycles simulated
system.cpu0.numWorkItemsStarted                     0                       # number of work items this cpu started
system.cpu0.numWorkItemsCompleted                   0                       # number of work items this cpu completed
system.cpu0.committedInsts                          0                       # Number of instructions committed
system.cpu0.committedOps                            0                       # Number of ops (including micro ops) committed
system.cpu0.num_int_alu_accesses                    0                       # Number of integer alu accesses
system.cpu0.num_fp_alu_accesses                     0                       # Number of float alu accesses
system.cpu0.num_func_calls                          0                       # number of times a function call or return occured
system.cpu0.num_conditional_control_insts            0                       # number of instructions that are conditional controls
system.cpu0.num_int_insts                           0                       # number of integer instructions
system.cpu0.num_fp_insts                            0                       # number of float instructions
system.cpu0.num_int_register_reads                  0                       # number of times the integer registers were read
system.cpu0.num_int_register_writes                 0                       # number of times the integer registers were written
system.cpu0.num_fp_register_reads                   0                       # number of times the floating registers were read
system.cpu0.num_fp_register_writes                  0                       # number of times the floating registers were written
system.cpu0.num_mem_refs                            0                       # number of memory refs
system.cpu0.num_load_insts                          0                       # Number of load instructions
system.cpu0.num_store_insts                         0                       # Number of store instructions
system.cpu0.num_idle_cycles                         0                       # Number of idle cycles
system.cpu0.num_busy_cycles                         0                       # Number of busy cycles
system.cpu0.not_idle_fraction                       1                       # Percentage of non-idle cycles
system.cpu0.idle_fraction                           0                       # Percentage of idle cycles
system.cpu0.op_class::No_OpClass                    0                       # Class of executed instruction
system.cpu0.op_class::IntAlu                        0                       # Class of executed instruction
system.cpu0.op_class::IntMult                       0                       # Class of executed instruction
system.cpu0.op_class::IntDiv                        0                       # Class of executed instruction
system.cpu0.op_class::FloatAdd                      0                       # Class of executed instruction
system.cpu0.op_class::FloatCmp                      0                       # Class of executed instruction
system.cpu0.op_class::FloatCvt                      0                       # Class of executed instruction
system.cpu0.op_class::FloatMult                     0                       # Class of executed instruction
system.cpu0.op_class::FloatDiv                      0                       # Class of executed instruction
system.cpu0.op_class::FloatSqrt                     0                       # Class of executed instruction
system.cpu0.op_class::SimdAdd                       0                       # Class of executed instruction
system.cpu0.op_class::SimdAddAcc                    0                       # Class of executed instruction
system.cpu0.op_class::SimdAlu                       0                       # Class of executed instruction
system.cpu0.op_class::SimdCmp                       0                       # Class of executed instruction
system.cpu0.op_class::SimdCvt                       0                       # Class of executed instruction
system.cpu0.op_class::SimdMisc                      0                       # Class of executed instruction
system.cpu0.op_class::SimdMult                      0                       # Class of executed instruction
system.cpu0.op_class::SimdMultAcc                   0                       # Class of executed instruction
system.cpu0.op_class::SimdShift                     0                       # Class of executed instruction
system.cpu0.op_class::SimdShiftAcc                  0                       # Class of executed instruction
system.cpu0.op_class::SimdSqrt                      0                       # Class of executed instruction
system.cpu0.op_class::SimdFloatAdd                  0                       # Class of executed instruction
system.cpu0.op_class::SimdFloatAlu                  0                       # Class of executed instruction
system.cpu0.op_class::SimdFloatCmp                  0                       # Class of executed instruction
system.cpu0.op_class::SimdFloatCvt                  0                       # Class of executed instruction
system.cpu0.op_class::SimdFloatDiv                  0                       # Class of executed instruction
system.cpu0.op_class::SimdFloatMisc                 0                       # Class of executed instruction
system.cpu0.op_class::SimdFloatMult                 0                       # Class of executed instruction
system.cpu0.op_class::SimdFloatMultAcc              0                       # Class of executed instruction
system.cpu0.op_class::SimdFloatSqrt                 0                       # Class of executed instruction
system.cpu0.op_class::MemRead                       0                       # Class of executed instruction
system.cpu0.op_class::MemWrite                      0                       # Class of executed instruction
system.cpu0.op_class::IprAccess                     0                       # Class of executed instruction
system.cpu0.op_class::InstPrefetch                  0                       # Class of executed instruction
system.cpu0.op_class::total                         0                       # Class of executed instruction
system.cpu0.kern.inst.arm                           0                       # number of arm instructions executed
system.cpu0.kern.inst.quiesce                       3                       # number of quiesce instructions executed
system.cpu0.kern.inst.hwrei                       597                       # number of hwrei instructions executed
system.cpu0.kern.ipl_count::0                     168     46.28%     46.28% # number of times we switched to this ipl
system.cpu0.kern.ipl_count::22                      1      0.28%     46.56% # number of times we switched to this ipl
system.cpu0.kern.ipl_count::30                      1      0.28%     46.83% # number of times we switched to this ipl
system.cpu0.kern.ipl_count::31                    193     53.17%    100.00% # number of times we switched to this ipl
system.cpu0.kern.ipl_count::total                 363                       # number of times we switched to this ipl
system.cpu0.kern.ipl_good::0                      168     49.85%     49.85% # number of times we switched to this ipl from a different ipl
system.cpu0.kern.ipl_good::22                       1      0.30%     50.15% # number of times we switched to this ipl from a different ipl
system.cpu0.kern.ipl_good::30                       1      0.30%     50.45% # number of times we switched to this ipl from a different ipl
system.cpu0.kern.ipl_good::31                     167     49.55%    100.00% # number of times we switched to this ipl from a different ipl
system.cpu0.kern.ipl_good::total                  337                       # number of times we switched to this ipl from a different ipl
system.cpu0.kern.ipl_ticks::0               436600000     91.36%     91.36% # number of cycles we spent at this ipl
system.cpu0.kern.ipl_ticks::22                 418000      0.09%     91.45% # number of cycles we spent at this ipl
system.cpu0.kern.ipl_ticks::30                1349000      0.28%     91.73% # number of cycles we spent at this ipl
system.cpu0.kern.ipl_ticks::31               39521500      8.27%    100.00% # number of cycles we spent at this ipl
system.cpu0.kern.ipl_ticks::total           477888500                       # number of cycles we spent at this ipl
system.cpu0.kern.ipl_used::0                        1                       # fraction of swpipl calls that actually changed the ipl
system.cpu0.kern.ipl_used::22                       1                       # fraction of swpipl calls that actually changed the ipl
system.cpu0.kern.ipl_used::30                       1                       # fraction of swpipl calls that actually changed the ipl
system.cpu0.kern.ipl_used::31                0.865285                       # fraction of swpipl calls that actually changed the ipl
system.cpu0.kern.ipl_used::total             0.928375                       # fraction of swpipl calls that actually changed the ipl
system.cpu0.kern.syscall::2                         1     33.33%     33.33% # number of syscalls executed
system.cpu0.kern.syscall::3                         1     33.33%     66.67% # number of syscalls executed
system.cpu0.kern.syscall::19                        1     33.33%    100.00% # number of syscalls executed
system.cpu0.kern.syscall::total                     3                       # number of syscalls executed
system.cpu0.kern.callpal::wripir                    1      0.26%      0.26% # number of callpals executed
system.cpu0.kern.callpal::swpctx                   12      3.08%      3.34% # number of callpals executed
system.cpu0.kern.callpal::tbi                       2      0.51%      3.86% # number of callpals executed
system.cpu0.kern.callpal::swpipl                  342     87.92%     91.77% # number of callpals executed
system.cpu0.kern.callpal::rdps                      2      0.51%     92.29% # number of callpals executed
system.cpu0.kern.callpal::rdusp                     1      0.26%     92.54% # number of callpals executed
system.cpu0.kern.callpal::rti                      19      4.88%     97.43% # number of callpals executed
system.cpu0.kern.callpal::callsys                   9      2.31%     99.74% # number of callpals executed
system.cpu0.kern.callpal::imb                       1      0.26%    100.00% # number of callpals executed
system.cpu0.kern.callpal::total                   389                       # number of callpals executed
system.cpu0.kern.mode_switch::kernel               32                       # number of protection mode switches
system.cpu0.kern.mode_switch::user                 17                       # number of protection mode switches
system.cpu0.kern.mode_switch::idle                  0                       # number of protection mode switches
system.cpu0.kern.mode_good::kernel                 18                      
system.cpu0.kern.mode_good::user                   17                      
system.cpu0.kern.mode_good::idle                    0                      
system.cpu0.kern.mode_switch_good::kernel     0.562500                       # fraction of useful protection mode switches
system.cpu0.kern.mode_switch_good::user             1                       # fraction of useful protection mode switches
system.cpu0.kern.mode_switch_good::idle           nan                       # fraction of useful protection mode switches
system.cpu0.kern.mode_switch_good::total     0.714286                       # fraction of useful protection mode switches
system.cpu0.kern.mode_ticks::kernel         118094500     69.19%     69.19% # number of ticks spent at the given mode
system.cpu0.kern.mode_ticks::user            52587500     30.81%    100.00% # number of ticks spent at the given mode
system.cpu0.kern.mode_ticks::idle                   0      0.00%    100.00% # number of ticks spent at the given mode
system.cpu0.kern.swap_context                      12                       # number of times the context was actually changed
system.cpu0.dcache.tags.replacements             4860                       # number of replacements
system.cpu0.dcache.tags.tagsinuse          503.000309                       # Cycle average of tags in use
system.cpu0.dcache.tags.total_refs              55157                       # Total number of references to valid blocks.
system.cpu0.dcache.tags.sampled_refs             4860                       # Sample count of references to valid blocks.
system.cpu0.dcache.tags.avg_refs            11.349177                       # Average number of references to valid blocks.
system.cpu0.dcache.tags.warmup_cycle                0                       # Cycle when the warmup percentage was hit.
system.cpu0.dcache.tags.occ_blocks::cpu0.data    22.289915                       # Average occupied blocks per requestor
system.cpu0.dcache.tags.occ_blocks::switch_cpus0.data   480.710394                       # Average occupied blocks per requestor
system.cpu0.dcache.tags.occ_percent::cpu0.data     0.043535                       # Average percentage of cache occupancy
system.cpu0.dcache.tags.occ_percent::switch_cpus0.data     0.938887                       # Average percentage of cache occupancy
system.cpu0.dcache.tags.occ_percent::total     0.982422                       # Average percentage of cache occupancy
system.cpu0.dcache.tags.occ_task_id_blocks::1024          501                       # Occupied blocks per task id
system.cpu0.dcache.tags.age_task_id_blocks_1024::2          501                       # Occupied blocks per task id
system.cpu0.dcache.tags.occ_task_id_percent::1024     0.978516                       # Percentage of cache occupancy per task id
system.cpu0.dcache.tags.tag_accesses           288651                       # Number of tag accesses
system.cpu0.dcache.tags.data_accesses          288651                       # Number of data accesses
system.cpu0.dcache.ReadReq_hits::switch_cpus0.data        32073                       # number of ReadReq hits
system.cpu0.dcache.ReadReq_hits::total          32073                       # number of ReadReq hits
system.cpu0.dcache.WriteReq_hits::switch_cpus0.data        13949                       # number of WriteReq hits
system.cpu0.dcache.WriteReq_hits::total         13949                       # number of WriteReq hits
system.cpu0.dcache.LoadLockedReq_hits::switch_cpus0.data          553                       # number of LoadLockedReq hits
system.cpu0.dcache.LoadLockedReq_hits::total          553                       # number of LoadLockedReq hits
system.cpu0.dcache.StoreCondReq_hits::switch_cpus0.data          599                       # number of StoreCondReq hits
system.cpu0.dcache.StoreCondReq_hits::total          599                       # number of StoreCondReq hits
system.cpu0.dcache.demand_hits::switch_cpus0.data        46022                       # number of demand (read+write) hits
system.cpu0.dcache.demand_hits::total           46022                       # number of demand (read+write) hits
system.cpu0.dcache.overall_hits::switch_cpus0.data        46022                       # number of overall hits
system.cpu0.dcache.overall_hits::total          46022                       # number of overall hits
system.cpu0.dcache.ReadReq_misses::switch_cpus0.data         9445                       # number of ReadReq misses
system.cpu0.dcache.ReadReq_misses::total         9445                       # number of ReadReq misses
system.cpu0.dcache.WriteReq_misses::switch_cpus0.data        14141                       # number of WriteReq misses
system.cpu0.dcache.WriteReq_misses::total        14141                       # number of WriteReq misses
system.cpu0.dcache.LoadLockedReq_misses::switch_cpus0.data          154                       # number of LoadLockedReq misses
system.cpu0.dcache.LoadLockedReq_misses::total          154                       # number of LoadLockedReq misses
system.cpu0.dcache.StoreCondReq_misses::switch_cpus0.data           21                       # number of StoreCondReq misses
system.cpu0.dcache.StoreCondReq_misses::total           21                       # number of StoreCondReq misses
system.cpu0.dcache.demand_misses::switch_cpus0.data        23586                       # number of demand (read+write) misses
system.cpu0.dcache.demand_misses::total         23586                       # number of demand (read+write) misses
system.cpu0.dcache.overall_misses::switch_cpus0.data        23586                       # number of overall misses
system.cpu0.dcache.overall_misses::total        23586                       # number of overall misses
system.cpu0.dcache.ReadReq_miss_latency::switch_cpus0.data    283609400                       # number of ReadReq miss cycles
system.cpu0.dcache.ReadReq_miss_latency::total    283609400                       # number of ReadReq miss cycles
system.cpu0.dcache.WriteReq_miss_latency::switch_cpus0.data    314738473                       # number of WriteReq miss cycles
system.cpu0.dcache.WriteReq_miss_latency::total    314738473                       # number of WriteReq miss cycles
system.cpu0.dcache.LoadLockedReq_miss_latency::switch_cpus0.data      3032747                       # number of LoadLockedReq miss cycles
system.cpu0.dcache.LoadLockedReq_miss_latency::total      3032747                       # number of LoadLockedReq miss cycles
system.cpu0.dcache.StoreCondReq_miss_latency::switch_cpus0.data       179503                       # number of StoreCondReq miss cycles
system.cpu0.dcache.StoreCondReq_miss_latency::total       179503                       # number of StoreCondReq miss cycles
system.cpu0.dcache.StoreCondFailReq_miss_latency::switch_cpus0.data        16000                       # number of StoreCondFailReq miss cycles
system.cpu0.dcache.StoreCondFailReq_miss_latency::total        16000                       # number of StoreCondFailReq miss cycles
system.cpu0.dcache.demand_miss_latency::switch_cpus0.data    598347873                       # number of demand (read+write) miss cycles
system.cpu0.dcache.demand_miss_latency::total    598347873                       # number of demand (read+write) miss cycles
system.cpu0.dcache.overall_miss_latency::switch_cpus0.data    598347873                       # number of overall miss cycles
system.cpu0.dcache.overall_miss_latency::total    598347873                       # number of overall miss cycles
system.cpu0.dcache.ReadReq_accesses::switch_cpus0.data        41518                       # number of ReadReq accesses(hits+misses)
system.cpu0.dcache.ReadReq_accesses::total        41518                       # number of ReadReq accesses(hits+misses)
system.cpu0.dcache.WriteReq_accesses::switch_cpus0.data        28090                       # number of WriteReq accesses(hits+misses)
system.cpu0.dcache.WriteReq_accesses::total        28090                       # number of WriteReq accesses(hits+misses)
system.cpu0.dcache.LoadLockedReq_accesses::switch_cpus0.data          707                       # number of LoadLockedReq accesses(hits+misses)
system.cpu0.dcache.LoadLockedReq_accesses::total          707                       # number of LoadLockedReq accesses(hits+misses)
system.cpu0.dcache.StoreCondReq_accesses::switch_cpus0.data          620                       # number of StoreCondReq accesses(hits+misses)
system.cpu0.dcache.StoreCondReq_accesses::total          620                       # number of StoreCondReq accesses(hits+misses)
system.cpu0.dcache.demand_accesses::switch_cpus0.data        69608                       # number of demand (read+write) accesses
system.cpu0.dcache.demand_accesses::total        69608                       # number of demand (read+write) accesses
system.cpu0.dcache.overall_accesses::switch_cpus0.data        69608                       # number of overall (read+write) accesses
system.cpu0.dcache.overall_accesses::total        69608                       # number of overall (read+write) accesses
system.cpu0.dcache.ReadReq_miss_rate::switch_cpus0.data     0.227492                       # miss rate for ReadReq accesses
system.cpu0.dcache.ReadReq_miss_rate::total     0.227492                       # miss rate for ReadReq accesses
system.cpu0.dcache.WriteReq_miss_rate::switch_cpus0.data     0.503418                       # miss rate for WriteReq accesses
system.cpu0.dcache.WriteReq_miss_rate::total     0.503418                       # miss rate for WriteReq accesses
system.cpu0.dcache.LoadLockedReq_miss_rate::switch_cpus0.data     0.217822                       # miss rate for LoadLockedReq accesses
system.cpu0.dcache.LoadLockedReq_miss_rate::total     0.217822                       # miss rate for LoadLockedReq accesses
system.cpu0.dcache.StoreCondReq_miss_rate::switch_cpus0.data     0.033871                       # miss rate for StoreCondReq accesses
system.cpu0.dcache.StoreCondReq_miss_rate::total     0.033871                       # miss rate for StoreCondReq accesses
system.cpu0.dcache.demand_miss_rate::switch_cpus0.data     0.338840                       # miss rate for demand accesses
system.cpu0.dcache.demand_miss_rate::total     0.338840                       # miss rate for demand accesses
system.cpu0.dcache.overall_miss_rate::switch_cpus0.data     0.338840                       # miss rate for overall accesses
system.cpu0.dcache.overall_miss_rate::total     0.338840                       # miss rate for overall accesses
system.cpu0.dcache.ReadReq_avg_miss_latency::switch_cpus0.data 30027.464267                       # average ReadReq miss latency
system.cpu0.dcache.ReadReq_avg_miss_latency::total 30027.464267                       # average ReadReq miss latency
system.cpu0.dcache.WriteReq_avg_miss_latency::switch_cpus0.data 22257.158122                       # average WriteReq miss latency
system.cpu0.dcache.WriteReq_avg_miss_latency::total 22257.158122                       # average WriteReq miss latency
system.cpu0.dcache.LoadLockedReq_avg_miss_latency::switch_cpus0.data 19693.162338                       # average LoadLockedReq miss latency
system.cpu0.dcache.LoadLockedReq_avg_miss_latency::total 19693.162338                       # average LoadLockedReq miss latency
system.cpu0.dcache.StoreCondReq_avg_miss_latency::switch_cpus0.data  8547.761905                       # average StoreCondReq miss latency
system.cpu0.dcache.StoreCondReq_avg_miss_latency::total  8547.761905                       # average StoreCondReq miss latency
system.cpu0.dcache.StoreCondFailReq_avg_miss_latency::switch_cpus0.data          inf                       # average StoreCondFailReq miss latency
system.cpu0.dcache.StoreCondFailReq_avg_miss_latency::total          inf                       # average StoreCondFailReq miss latency
system.cpu0.dcache.demand_avg_miss_latency::switch_cpus0.data 25368.772704                       # average overall miss latency
system.cpu0.dcache.demand_avg_miss_latency::total 25368.772704                       # average overall miss latency
system.cpu0.dcache.overall_avg_miss_latency::switch_cpus0.data 25368.772704                       # average overall miss latency
system.cpu0.dcache.overall_avg_miss_latency::total 25368.772704                       # average overall miss latency
system.cpu0.dcache.blocked_cycles::no_mshrs        21430                       # number of cycles access was blocked
system.cpu0.dcache.blocked_cycles::no_targets          237                       # number of cycles access was blocked
system.cpu0.dcache.blocked::no_mshrs             1313                       # number of cycles access was blocked
system.cpu0.dcache.blocked::no_targets              6                       # number of cycles access was blocked
system.cpu0.dcache.avg_blocked_cycles::no_mshrs    16.321401                       # average number of cycles each access was blocked
system.cpu0.dcache.avg_blocked_cycles::no_targets    39.500000                       # average number of cycles each access was blocked
system.cpu0.dcache.fast_writes                      0                       # number of fast writes performed
system.cpu0.dcache.cache_copies                     0                       # number of cache copies performed
system.cpu0.dcache.writebacks::writebacks         3494                       # number of writebacks
system.cpu0.dcache.writebacks::total             3494                       # number of writebacks
system.cpu0.dcache.ReadReq_mshr_hits::switch_cpus0.data         6656                       # number of ReadReq MSHR hits
system.cpu0.dcache.ReadReq_mshr_hits::total         6656                       # number of ReadReq MSHR hits
system.cpu0.dcache.WriteReq_mshr_hits::switch_cpus0.data        12055                       # number of WriteReq MSHR hits
system.cpu0.dcache.WriteReq_mshr_hits::total        12055                       # number of WriteReq MSHR hits
system.cpu0.dcache.LoadLockedReq_mshr_hits::switch_cpus0.data           55                       # number of LoadLockedReq MSHR hits
system.cpu0.dcache.LoadLockedReq_mshr_hits::total           55                       # number of LoadLockedReq MSHR hits
system.cpu0.dcache.demand_mshr_hits::switch_cpus0.data        18711                       # number of demand (read+write) MSHR hits
system.cpu0.dcache.demand_mshr_hits::total        18711                       # number of demand (read+write) MSHR hits
system.cpu0.dcache.overall_mshr_hits::switch_cpus0.data        18711                       # number of overall MSHR hits
system.cpu0.dcache.overall_mshr_hits::total        18711                       # number of overall MSHR hits
system.cpu0.dcache.ReadReq_mshr_misses::switch_cpus0.data         2789                       # number of ReadReq MSHR misses
system.cpu0.dcache.ReadReq_mshr_misses::total         2789                       # number of ReadReq MSHR misses
system.cpu0.dcache.WriteReq_mshr_misses::switch_cpus0.data         2086                       # number of WriteReq MSHR misses
system.cpu0.dcache.WriteReq_mshr_misses::total         2086                       # number of WriteReq MSHR misses
system.cpu0.dcache.LoadLockedReq_mshr_misses::switch_cpus0.data           99                       # number of LoadLockedReq MSHR misses
system.cpu0.dcache.LoadLockedReq_mshr_misses::total           99                       # number of LoadLockedReq MSHR misses
system.cpu0.dcache.StoreCondReq_mshr_misses::switch_cpus0.data           21                       # number of StoreCondReq MSHR misses
system.cpu0.dcache.StoreCondReq_mshr_misses::total           21                       # number of StoreCondReq MSHR misses
system.cpu0.dcache.demand_mshr_misses::switch_cpus0.data         4875                       # number of demand (read+write) MSHR misses
system.cpu0.dcache.demand_mshr_misses::total         4875                       # number of demand (read+write) MSHR misses
system.cpu0.dcache.overall_mshr_misses::switch_cpus0.data         4875                       # number of overall MSHR misses
system.cpu0.dcache.overall_mshr_misses::total         4875                       # number of overall MSHR misses
system.cpu0.dcache.WriteReq_mshr_uncacheable::switch_cpus0.data            3                       # number of WriteReq MSHR uncacheable
system.cpu0.dcache.WriteReq_mshr_uncacheable::total            3                       # number of WriteReq MSHR uncacheable
system.cpu0.dcache.overall_mshr_uncacheable_misses::switch_cpus0.data            3                       # number of overall MSHR uncacheable misses
system.cpu0.dcache.overall_mshr_uncacheable_misses::total            3                       # number of overall MSHR uncacheable misses
system.cpu0.dcache.ReadReq_mshr_miss_latency::switch_cpus0.data     78487026                       # number of ReadReq MSHR miss cycles
system.cpu0.dcache.ReadReq_mshr_miss_latency::total     78487026                       # number of ReadReq MSHR miss cycles
system.cpu0.dcache.WriteReq_mshr_miss_latency::switch_cpus0.data     46749163                       # number of WriteReq MSHR miss cycles
system.cpu0.dcache.WriteReq_mshr_miss_latency::total     46749163                       # number of WriteReq MSHR miss cycles
system.cpu0.dcache.LoadLockedReq_mshr_miss_latency::switch_cpus0.data      2053753                       # number of LoadLockedReq MSHR miss cycles
system.cpu0.dcache.LoadLockedReq_mshr_miss_latency::total      2053753                       # number of LoadLockedReq MSHR miss cycles
system.cpu0.dcache.StoreCondReq_mshr_miss_latency::switch_cpus0.data       149497                       # number of StoreCondReq MSHR miss cycles
system.cpu0.dcache.StoreCondReq_mshr_miss_latency::total       149497                       # number of StoreCondReq MSHR miss cycles
system.cpu0.dcache.StoreCondFailReq_mshr_miss_latency::switch_cpus0.data        14500                       # number of StoreCondFailReq MSHR miss cycles
system.cpu0.dcache.StoreCondFailReq_mshr_miss_latency::total        14500                       # number of StoreCondFailReq MSHR miss cycles
system.cpu0.dcache.demand_mshr_miss_latency::switch_cpus0.data    125236189                       # number of demand (read+write) MSHR miss cycles
system.cpu0.dcache.demand_mshr_miss_latency::total    125236189                       # number of demand (read+write) MSHR miss cycles
system.cpu0.dcache.overall_mshr_miss_latency::switch_cpus0.data    125236189                       # number of overall MSHR miss cycles
system.cpu0.dcache.overall_mshr_miss_latency::total    125236189                       # number of overall MSHR miss cycles
system.cpu0.dcache.WriteReq_mshr_uncacheable_latency::switch_cpus0.data       674000                       # number of WriteReq MSHR uncacheable cycles
system.cpu0.dcache.WriteReq_mshr_uncacheable_latency::total       674000                       # number of WriteReq MSHR uncacheable cycles
system.cpu0.dcache.overall_mshr_uncacheable_latency::switch_cpus0.data       674000                       # number of overall MSHR uncacheable cycles
system.cpu0.dcache.overall_mshr_uncacheable_latency::total       674000                       # number of overall MSHR uncacheable cycles
system.cpu0.dcache.ReadReq_mshr_miss_rate::switch_cpus0.data     0.067176                       # mshr miss rate for ReadReq accesses
system.cpu0.dcache.ReadReq_mshr_miss_rate::total     0.067176                       # mshr miss rate for ReadReq accesses
system.cpu0.dcache.WriteReq_mshr_miss_rate::switch_cpus0.data     0.074261                       # mshr miss rate for WriteReq accesses
system.cpu0.dcache.WriteReq_mshr_miss_rate::total     0.074261                       # mshr miss rate for WriteReq accesses
system.cpu0.dcache.LoadLockedReq_mshr_miss_rate::switch_cpus0.data     0.140028                       # mshr miss rate for LoadLockedReq accesses
system.cpu0.dcache.LoadLockedReq_mshr_miss_rate::total     0.140028                       # mshr miss rate for LoadLockedReq accesses
system.cpu0.dcache.StoreCondReq_mshr_miss_rate::switch_cpus0.data     0.033871                       # mshr miss rate for StoreCondReq accesses
system.cpu0.dcache.StoreCondReq_mshr_miss_rate::total     0.033871                       # mshr miss rate for StoreCondReq accesses
system.cpu0.dcache.demand_mshr_miss_rate::switch_cpus0.data     0.070035                       # mshr miss rate for demand accesses
system.cpu0.dcache.demand_mshr_miss_rate::total     0.070035                       # mshr miss rate for demand accesses
system.cpu0.dcache.overall_mshr_miss_rate::switch_cpus0.data     0.070035                       # mshr miss rate for overall accesses
system.cpu0.dcache.overall_mshr_miss_rate::total     0.070035                       # mshr miss rate for overall accesses
system.cpu0.dcache.ReadReq_avg_mshr_miss_latency::switch_cpus0.data 28141.637146                       # average ReadReq mshr miss latency
system.cpu0.dcache.ReadReq_avg_mshr_miss_latency::total 28141.637146                       # average ReadReq mshr miss latency
system.cpu0.dcache.WriteReq_avg_mshr_miss_latency::switch_cpus0.data 22410.912272                       # average WriteReq mshr miss latency
system.cpu0.dcache.WriteReq_avg_mshr_miss_latency::total 22410.912272                       # average WriteReq mshr miss latency
system.cpu0.dcache.LoadLockedReq_avg_mshr_miss_latency::switch_cpus0.data 20744.979798                       # average LoadLockedReq mshr miss latency
system.cpu0.dcache.LoadLockedReq_avg_mshr_miss_latency::total 20744.979798                       # average LoadLockedReq mshr miss latency
system.cpu0.dcache.StoreCondReq_avg_mshr_miss_latency::switch_cpus0.data  7118.904762                       # average StoreCondReq mshr miss latency
system.cpu0.dcache.StoreCondReq_avg_mshr_miss_latency::total  7118.904762                       # average StoreCondReq mshr miss latency
system.cpu0.dcache.StoreCondFailReq_avg_mshr_miss_latency::switch_cpus0.data          inf                       # average StoreCondFailReq mshr miss latency
system.cpu0.dcache.StoreCondFailReq_avg_mshr_miss_latency::total          inf                       # average StoreCondFailReq mshr miss latency
system.cpu0.dcache.demand_avg_mshr_miss_latency::switch_cpus0.data 25689.474667                       # average overall mshr miss latency
system.cpu0.dcache.demand_avg_mshr_miss_latency::total 25689.474667                       # average overall mshr miss latency
system.cpu0.dcache.overall_avg_mshr_miss_latency::switch_cpus0.data 25689.474667                       # average overall mshr miss latency
system.cpu0.dcache.overall_avg_mshr_miss_latency::total 25689.474667                       # average overall mshr miss latency
system.cpu0.dcache.WriteReq_avg_mshr_uncacheable_latency::switch_cpus0.data 224666.666667                       # average WriteReq mshr uncacheable latency
system.cpu0.dcache.WriteReq_avg_mshr_uncacheable_latency::total 224666.666667                       # average WriteReq mshr uncacheable latency
system.cpu0.dcache.overall_avg_mshr_uncacheable_latency::switch_cpus0.data 224666.666667                       # average overall mshr uncacheable latency
system.cpu0.dcache.overall_avg_mshr_uncacheable_latency::total 224666.666667                       # average overall mshr uncacheable latency
system.cpu0.dcache.no_allocate_misses               0                       # Number of misses that were no-allocate
system.cpu0.icache.tags.replacements             3468                       # number of replacements
system.cpu0.icache.tags.tagsinuse          511.975558                       # Cycle average of tags in use
system.cpu0.icache.tags.total_refs             260200                       # Total number of references to valid blocks.
system.cpu0.icache.tags.sampled_refs             3468                       # Sample count of references to valid blocks.
system.cpu0.icache.tags.avg_refs            75.028835                       # Average number of references to valid blocks.
system.cpu0.icache.tags.warmup_cycle                0                       # Cycle when the warmup percentage was hit.
system.cpu0.icache.tags.occ_blocks::cpu0.inst    18.448904                       # Average occupied blocks per requestor
system.cpu0.icache.tags.occ_blocks::switch_cpus0.inst   493.526654                       # Average occupied blocks per requestor
system.cpu0.icache.tags.occ_percent::cpu0.inst     0.036033                       # Average percentage of cache occupancy
system.cpu0.icache.tags.occ_percent::switch_cpus0.inst     0.963919                       # Average percentage of cache occupancy
system.cpu0.icache.tags.occ_percent::total     0.999952                       # Average percentage of cache occupancy
system.cpu0.icache.tags.occ_task_id_blocks::1024          512                       # Occupied blocks per task id
system.cpu0.icache.tags.age_task_id_blocks_1024::2          512                       # Occupied blocks per task id
system.cpu0.icache.tags.occ_task_id_percent::1024            1                       # Percentage of cache occupancy per task id
system.cpu0.icache.tags.tag_accesses            84808                       # Number of tag accesses
system.cpu0.icache.tags.data_accesses           84808                       # Number of data accesses
system.cpu0.icache.ReadReq_hits::switch_cpus0.inst        36511                       # number of ReadReq hits
system.cpu0.icache.ReadReq_hits::total          36511                       # number of ReadReq hits
system.cpu0.icache.demand_hits::switch_cpus0.inst        36511                       # number of demand (read+write) hits
system.cpu0.icache.demand_hits::total           36511                       # number of demand (read+write) hits
system.cpu0.icache.overall_hits::switch_cpus0.inst        36511                       # number of overall hits
system.cpu0.icache.overall_hits::total          36511                       # number of overall hits
system.cpu0.icache.ReadReq_misses::switch_cpus0.inst         4158                       # number of ReadReq misses
system.cpu0.icache.ReadReq_misses::total         4158                       # number of ReadReq misses
system.cpu0.icache.demand_misses::switch_cpus0.inst         4158                       # number of demand (read+write) misses
[...]
system.switch_cpus3.ipc_total                0.447758                       # IPC: Total IPC of All Threads
system.switch_cpus3.int_regfile_reads          232173                       # number of integer regfile reads
system.switch_cpus3.int_regfile_writes         122618                       # number of integer regfile writes
system.switch_cpus3.fp_regfile_reads              183                       # number of floating regfile reads
system.switch_cpus3.fp_regfile_writes             169                       # number of floating regfile writes
system.switch_cpus3.misc_regfile_reads          16753                       # number of misc regfile reads
system.switch_cpus3.misc_regfile_writes          4778                       # number of misc regfile writes
system.tol2bus.trans_dist::ReadReq              27844                       # Transaction distribution
system.tol2bus.trans_dist::ReadResp             27844                       # Transaction distribution
system.tol2bus.trans_dist::WriteReq               116                       # Transaction distribution
system.tol2bus.trans_dist::WriteResp              116                       # Transaction distribution
system.tol2bus.trans_dist::Writeback            13951                       # Transaction distribution
system.tol2bus.trans_dist::UpgradeReq             261                       # Transaction distribution
system.tol2bus.trans_dist::SCUpgradeReq           213                       # Transaction distribution
system.tol2bus.trans_dist::UpgradeResp            474                       # Transaction distribution
system.tol2bus.trans_dist::ReadExReq            10035                       # Transaction distribution
system.tol2bus.trans_dist::ReadExResp           10035                       # Transaction distribution
system.tol2bus.trans_dist::BadAddressError            1                       # Transaction distribution
system.tol2bus.pkt_count_system.cpu0.icache.mem_side::system.l2.cpu_side        12046                       # Packet count per connected master and slave (bytes)
system.tol2bus.pkt_count_system.cpu0.dcache.mem_side::system.l2.cpu_side        33694                       # Packet count per connected master and slave (bytes)
system.tol2bus.pkt_count_system.cpu1.icache.mem_side::system.l2.cpu_side          146                       # Packet count per connected master and slave (bytes)
system.tol2bus.pkt_count_system.cpu1.dcache.mem_side::system.l2.cpu_side          319                       # Packet count per connected master and slave (bytes)
system.tol2bus.pkt_count_system.cpu2.icache.mem_side::system.l2.cpu_side        12234                       # Packet count per connected master and slave (bytes)
system.tol2bus.pkt_count_system.cpu2.dcache.mem_side::system.l2.cpu_side        19179                       # Packet count per connected master and slave (bytes)
system.tol2bus.pkt_count_system.cpu3.icache.mem_side::system.l2.cpu_side         4390                       # Packet count per connected master and slave (bytes)
system.tol2bus.pkt_count_system.cpu3.dcache.mem_side::system.l2.cpu_side         7776                       # Packet count per connected master and slave (bytes)
system.tol2bus.pkt_count::total                 89784                       # Packet count per connected master and slave (bytes)
system.tol2bus.pkt_size_system.cpu0.icache.mem_side::system.l2.cpu_side       385152                       # Cumulative packet size per connected master and slave (bytes)
system.tol2bus.pkt_size_system.cpu0.dcache.mem_side::system.l2.cpu_side      1294146                       # Cumulative packet size per connected master and slave (bytes)
system.tol2bus.pkt_size_system.cpu1.icache.mem_side::system.l2.cpu_side         4672                       # Cumulative packet size per connected master and slave (bytes)
system.tol2bus.pkt_size_system.cpu1.dcache.mem_side::system.l2.cpu_side         6288                       # Cumulative packet size per connected master and slave (bytes)
system.tol2bus.pkt_size_system.cpu2.icache.mem_side::system.l2.cpu_side       391424                       # Cumulative packet size per connected master and slave (bytes)
system.tol2bus.pkt_size_system.cpu2.dcache.mem_side::system.l2.cpu_side       740762                       # Cumulative packet size per connected master and slave (bytes)
system.tol2bus.pkt_size_system.cpu3.icache.mem_side::system.l2.cpu_side       140480                       # Cumulative packet size per connected master and slave (bytes)
system.tol2bus.pkt_size_system.cpu3.dcache.mem_side::system.l2.cpu_side       288480                       # Cumulative packet size per connected master and slave (bytes)
system.tol2bus.pkt_size::total                3251404                       # Cumulative packet size per connected master and slave (bytes)
system.tol2bus.snoops                            1106                       # Total snoops (count)
system.tol2bus.snoop_fanout::samples            52420                       # Request fanout histogram
system.tol2bus.snoop_fanout::mean                   7                       # Request fanout histogram
system.tol2bus.snoop_fanout::stdev                  0                       # Request fanout histogram
system.tol2bus.snoop_fanout::underflows             0      0.00%      0.00% # Request fanout histogram
system.tol2bus.snoop_fanout::0                      0      0.00%      0.00% # Request fanout histogram
system.tol2bus.snoop_fanout::1                      0      0.00%      0.00% # Request fanout histogram
system.tol2bus.snoop_fanout::2                      0      0.00%      0.00% # Request fanout histogram
system.tol2bus.snoop_fanout::3                      0      0.00%      0.00% # Request fanout histogram
system.tol2bus.snoop_fanout::4                      0      0.00%      0.00% # Request fanout histogram
system.tol2bus.snoop_fanout::5                      0      0.00%      0.00% # Request fanout histogram
system.tol2bus.snoop_fanout::6                      0      0.00%      0.00% # Request fanout histogram
system.tol2bus.snoop_fanout::7                  52420    100.00%    100.00% # Request fanout histogram
system.tol2bus.snoop_fanout::8                      0      0.00%    100.00% # Request fanout histogram
system.tol2bus.snoop_fanout::overflows              0      0.00%    100.00% # Request fanout histogram
system.tol2bus.snoop_fanout::min_value              7                       # Request fanout histogram
system.tol2bus.snoop_fanout::max_value              7                       # Request fanout histogram
system.tol2bus.snoop_fanout::total              52420                       # Request fanout histogram
system.tol2bus.reqLayer0.occupancy           40219998                       # Layer occupancy (ticks)
system.tol2bus.reqLayer0.utilization              3.9                       # Layer utilization (%)
system.tol2bus.respLayer0.occupancy           9275725                       # Layer occupancy (ticks)
system.tol2bus.respLayer0.utilization             0.9                       # Layer utilization (%)
system.tol2bus.respLayer1.occupancy          20251786                       # Layer occupancy (ticks)
system.tol2bus.respLayer1.utilization             2.0                       # Layer utilization (%)
system.tol2bus.respLayer2.occupancy            112998                       # Layer occupancy (ticks)
system.tol2bus.respLayer2.utilization             0.0                       # Layer utilization (%)
system.tol2bus.respLayer3.occupancy            261505                       # Layer occupancy (ticks)
system.tol2bus.respLayer3.utilization             0.0                       # Layer utilization (%)
system.tol2bus.respLayer4.occupancy           9579479                       # Layer occupancy (ticks)
system.tol2bus.respLayer4.utilization             0.9                       # Layer utilization (%)
system.tol2bus.respLayer5.occupancy          11642272                       # Layer occupancy (ticks)
system.tol2bus.respLayer5.utilization             1.1                       # Layer utilization (%)
system.tol2bus.respLayer6.occupancy           3355227                       # Layer occupancy (ticks)
system.tol2bus.respLayer6.utilization             0.3                       # Layer utilization (%)
system.tol2bus.respLayer7.occupancy           5003755                       # Layer occupancy (ticks)
system.tol2bus.respLayer7.utilization             0.5                       # Layer utilization (%)
system.tsunami.ethernet.descDMAReads                0                       # Number of descriptors the device read w/ DMA
system.tsunami.ethernet.descDMAWrites               0                       # Number of descriptors the device wrote w/ DMA
system.tsunami.ethernet.descDmaReadBytes            0                       # number of descriptor bytes read w/ DMA
system.tsunami.ethernet.descDmaWriteBytes            0                       # number of descriptor bytes write w/ DMA
system.tsunami.ethernet.postedSwi                   0                       # number of software interrupts posted to CPU
system.tsunami.ethernet.coalescedSwi              nan                       # average number of Swi's coalesced into each post
system.tsunami.ethernet.totalSwi                    0                       # total number of Swi written to ISR
system.tsunami.ethernet.postedRxIdle                0                       # number of rxIdle interrupts posted to CPU
system.tsunami.ethernet.coalescedRxIdle           nan                       # average number of RxIdle's coalesced into each post
system.tsunami.ethernet.totalRxIdle                 0                       # total number of RxIdle written to ISR
system.tsunami.ethernet.postedRxOk                  0                       # number of RxOk interrupts posted to CPU
system.tsunami.ethernet.coalescedRxOk             nan                       # average number of RxOk's coalesced into each post
system.tsunami.ethernet.totalRxOk                   0                       # total number of RxOk written to ISR
system.tsunami.ethernet.postedRxDesc                0                       # number of RxDesc interrupts posted to CPU
system.tsunami.ethernet.coalescedRxDesc           nan                       # average number of RxDesc's coalesced into each post
system.tsunami.ethernet.totalRxDesc                 0                       # total number of RxDesc written to ISR
system.tsunami.ethernet.postedTxOk                  0                       # number of TxOk interrupts posted to CPU
system.tsunami.ethernet.coalescedTxOk             nan                       # average number of TxOk's coalesced into each post
system.tsunami.ethernet.totalTxOk                   0                       # total number of TxOk written to ISR
system.tsunami.ethernet.postedTxIdle                0                       # number of TxIdle interrupts posted to CPU
system.tsunami.ethernet.coalescedTxIdle           nan                       # average number of TxIdle's coalesced into each post
system.tsunami.ethernet.totalTxIdle                 0                       # total number of TxIdle written to ISR
system.tsunami.ethernet.postedTxDesc                0                       # number of TxDesc interrupts posted to CPU
system.tsunami.ethernet.coalescedTxDesc           nan                       # average number of TxDesc's coalesced into each post
system.tsunami.ethernet.totalTxDesc                 0                       # total number of TxDesc written to ISR
system.tsunami.ethernet.postedRxOrn                 0                       # number of RxOrn posted to CPU
system.tsunami.ethernet.coalescedRxOrn            nan                       # average number of RxOrn's coalesced into each post
system.tsunami.ethernet.totalRxOrn                  0                       # total number of RxOrn written to ISR
system.tsunami.ethernet.coalescedTotal            nan                       # average number of interrupts coalesced into each post
system.tsunami.ethernet.postedInterrupts            0                       # number of posts to CPU
system.tsunami.ethernet.droppedPackets              0                       # number of packets dropped
system.switch_cpus0.kern.inst.arm                   0                       # number of arm instructions executed
system.switch_cpus0.kern.inst.quiesce               0                       # number of quiesce instructions executed
system.switch_cpus0.kern.inst.hwrei                 0                       # number of hwrei instructions executed
system.switch_cpus0.kern.mode_switch::kernel            0                       # number of protection mode switches
system.switch_cpus0.kern.mode_switch::user            0                       # number of protection mode switches
system.switch_cpus0.kern.mode_switch::idle            0                       # number of protection mode switches
system.switch_cpus0.kern.mode_good::kernel            0                      
system.switch_cpus0.kern.mode_good::user            0                      
system.switch_cpus0.kern.mode_good::idle            0                      
system.switch_cpus0.kern.mode_switch_good::kernel          nan                       # fraction of useful protection mode switches
system.switch_cpus0.kern.mode_switch_good::user          nan                       # fraction of useful protection mode switches
system.switch_cpus0.kern.mode_switch_good::idle          nan                       # fraction of useful protection mode switches
system.switch_cpus0.kern.mode_switch_good::total          nan                       # fraction of useful protection mode switches
system.switch_cpus0.kern.mode_ticks::kernel            0                       # number of ticks spent at the given mode
system.switch_cpus0.kern.mode_ticks::user            0                       # number of ticks spent at the given mode
system.switch_cpus0.kern.mode_ticks::idle            0                       # number of ticks spent at the given mode
system.switch_cpus0.kern.swap_context               0                       # number of times the context was actually changed
system.switch_cpus1.kern.inst.arm                   0                       # number of arm instructions executed
system.switch_cpus1.kern.inst.quiesce               0                       # number of quiesce instructions executed
system.switch_cpus1.kern.inst.hwrei                 0                       # number of hwrei instructions executed
system.switch_cpus1.kern.mode_switch::kernel            0                       # number of protection mode switches
system.switch_cpus1.kern.mode_switch::user            0                       # number of protection mode switches
system.switch_cpus1.kern.mode_switch::idle            0                       # number of protection mode switches
system.switch_cpus1.kern.mode_good::kernel            0                      
system.switch_cpus1.kern.mode_good::user            0                      
system.switch_cpus1.kern.mode_good::idle            0                      
system.switch_cpus1.kern.mode_switch_good::kernel          nan                       # fraction of useful protection mode switches
system.switch_cpus1.kern.mode_switch_good::user          nan                       # fraction of useful protection mode switches
system.switch_cpus1.kern.mode_switch_good::idle          nan                       # fraction of useful protection mode switches
system.switch_cpus1.kern.mode_switch_good::total          nan                       # fraction of useful protection mode switches
system.switch_cpus1.kern.mode_ticks::kernel            0                       # number of ticks spent at the given mode
system.switch_cpus1.kern.mode_ticks::user            0                       # number of ticks spent at the given mode
system.switch_cpus1.kern.mode_ticks::idle            0                       # number of ticks spent at the given mode
system.switch_cpus1.kern.swap_context               0                       # number of times the context was actually changed
system.switch_cpus2.kern.inst.arm                   0                       # number of arm instructions executed
system.switch_cpus2.kern.inst.quiesce               0                       # number of quiesce instructions executed
system.switch_cpus2.kern.inst.hwrei                 0                       # number of hwrei instructions executed
system.switch_cpus2.kern.mode_switch::kernel            0                       # number of protection mode switches
system.switch_cpus2.kern.mode_switch::user            0                       # number of protection mode switches
system.switch_cpus2.kern.mode_switch::idle            0                       # number of protection mode switches
system.switch_cpus2.kern.mode_good::kernel            0                      
system.switch_cpus2.kern.mode_good::user            0                      
system.switch_cpus2.kern.mode_good::idle            0                      
system.switch_cpus2.kern.mode_switch_good::kernel          nan                       # fraction of useful protection mode switches
system.switch_cpus2.kern.mode_switch_good::user          nan                       # fraction of useful protection mode switches
system.switch_cpus2.kern.mode_switch_good::idle          nan                       # fraction of useful protection mode switches
system.switch_cpus2.kern.mode_switch_good::total          nan                       # fraction of useful protection mode switches
system.switch_cpus2.kern.mode_ticks::kernel            0                       # number of ticks spent at the given mode
system.switch_cpus2.kern.mode_ticks::user            0                       # number of ticks spent at the given mode
system.switch_cpus2.kern.mode_ticks::idle            0                       # number of ticks spent at the given mode
system.switch_cpus2.kern.swap_context               0                       # number of times the context was actually changed
system.switch_cpus3.kern.inst.arm                   0                       # number of arm instructions executed
system.switch_cpus3.kern.inst.quiesce               0                       # number of quiesce instructions executed
system.switch_cpus3.kern.inst.hwrei                 0                       # number of hwrei instructions executed
system.switch_cpus3.kern.mode_switch::kernel            0                       # number of protection mode switches
system.switch_cpus3.kern.mode_switch::user            0                       # number of protection mode switches
system.switch_cpus3.kern.mode_switch::idle            0                       # number of protection mode switches
system.switch_cpus3.kern.mode_good::kernel            0                      
system.switch_cpus3.kern.mode_good::user            0                      
system.switch_cpus3.kern.mode_good::idle            0                      
system.switch_cpus3.kern.mode_switch_good::kernel          nan                       # fraction of useful protection mode switches
system.switch_cpus3.kern.mode_switch_good::user          nan                       # fraction of useful protection mode switches
system.switch_cpus3.kern.mode_switch_good::idle          nan                       # fraction of useful protection mode switches
system.switch_cpus3.kern.mode_switch_good::total          nan                       # fraction of useful protection mode switches
system.switch_cpus3.kern.mode_ticks::kernel            0                       # number of ticks spent at the given mode
system.switch_cpus3.kern.mode_ticks::user            0                       # number of ticks spent at the given mode
system.switch_cpus3.kern.mode_ticks::idle            0                       # number of ticks spent at the given mode
system.switch_cpus3.kern.swap_context               0                       # number of times the context was actually changed

---------- End Simulation Statistics   ----------
