
---------- Begin Simulation Statistics ----------
sim_seconds                                  0.001245                       # Number of seconds simulated
sim_ticks                                  1245468500                       # Number of ticks simulated
final_tick                               2255684617000                       # Number of ticks from beginning of simulation (restored from checkpoints and never reset)
sim_freq                                 1000000000000                       # Frequency of simulated ticks
host_inst_rate                               29602405                       # Simulator instruction rate (inst/s)
host_op_rate                                 29602341                       # Simulator op (including micro ops) rate (op/s)
host_tick_rate                              376279303                       # Simulator tick rate (ticks/s)
host_mem_usage                                 729104                       # Number of bytes of host memory used
host_seconds                                     3.31                       # Real time elapsed on the host
sim_insts                                    97982291                       # Number of instructions simulated
sim_ops                                      97982291                       # Number of ops (including micro ops) simulated
system.voltage_domain.voltage                       1                       # Voltage in Volts
system.clk_domain.clock                          1000                       # Clock period in ticks
system.mem_ctrls.bytes_read::switch_cpus.inst       445696                       # Number of bytes read from this memory
system.mem_ctrls.bytes_read::switch_cpus.data      1003392                       # Number of bytes read from this memory
system.mem_ctrls.bytes_read::total            1449088                       # Number of bytes read from this memory
system.mem_ctrls.bytes_inst_read::switch_cpus.inst       445696                       # Number of instructions bytes read from this memory
system.mem_ctrls.bytes_inst_read::total        445696                       # Number of instructions bytes read from this memory
system.mem_ctrls.bytes_written::writebacks       608128                       # Number of bytes written to this memory
system.mem_ctrls.bytes_written::total          608128                       # Number of bytes written to this memory
system.mem_ctrls.num_reads::switch_cpus.inst         6964                       # Number of read requests responded to by this memory
system.mem_ctrls.num_reads::switch_cpus.data        15678                       # Number of read requests responded to by this memory
system.mem_ctrls.num_reads::total               22642                       # Number of read requests responded to by this memory
system.mem_ctrls.num_writes::writebacks          9502                       # Number of write requests responded to by this memory
system.mem_ctrls.num_writes::total               9502                       # Number of write requests responded to by this memory
system.mem_ctrls.bw_read::switch_cpus.inst    357854093                       # Total read bandwidth from this memory (bytes/s)
system.mem_ctrls.bw_read::switch_cpus.data    805634185                       # Total read bandwidth from this memory (bytes/s)
system.mem_ctrls.bw_read::total            1163488278                       # Total read bandwidth from this memory (bytes/s)
system.mem_ctrls.bw_inst_read::switch_cpus.inst    357854093                       # Instruction read bandwidth from this memory (bytes/s)
system.mem_ctrls.bw_inst_read::total        357854093                       # Instruction read bandwidth from this memory (bytes/s)
system.mem_ctrls.bw_write::writebacks       488272485                       # Write bandwidth from this memory (bytes/s)
system.mem_ctrls.bw_write::total            488272485                       # Write bandwidth from this memory (bytes/s)
system.mem_ctrls.bw_total::writebacks       488272485                       # Total bandwidth to/from this memory (bytes/s)
system.mem_ctrls.bw_total::switch_cpus.inst    357854093                       # Total bandwidth to/from this memory (bytes/s)
system.mem_ctrls.bw_total::switch_cpus.data    805634185                       # Total bandwidth to/from this memory (bytes/s)
system.mem_ctrls.bw_total::total           1651760763                       # Total bandwidth to/from this memory (bytes/s)
system.mem_ctrls.readReqs                       22642                       # Number of read requests accepted
system.mem_ctrls.writeReqs                       9502                       # Number of write requests accepted
system.mem_ctrls.readBursts                     22642                       # Number of DRAM read bursts, including those serviced by the write queue
system.mem_ctrls.writeBursts                     9502                       # Number of DRAM write bursts, including those merged in the write queue
system.mem_ctrls.bytesReadDRAM                1445056                       # Total number of bytes read from DRAM
system.mem_ctrls.bytesReadWrQ                    4032                       # Total number of bytes read from write queue
system.mem_ctrls.bytesWritten                  606016                       # Total number of bytes written to DRAM
system.mem_ctrls.bytesReadSys                 1449088                       # Total read bytes from the system interface side
system.mem_ctrls.bytesWrittenSys               608128                       # Total written bytes from the system interface side
system.mem_ctrls.servicedByWrQ                     63                       # Number of DRAM read bursts serviced by the write queue
system.mem_ctrls.mergedWrBursts                     2                       # Number of DRAM write bursts merged with an existing one
system.mem_ctrls.neitherReadNorWriteReqs           10                       # Number of requests that are neither read nor write
system.mem_ctrls.perBankRdBursts::0              1499                       # Per bank write bursts
system.mem_ctrls.perBankRdBursts::1              1082                       # Per bank write bursts
system.mem_ctrls.perBankRdBursts::2              1576                       # Per bank write bursts
system.mem_ctrls.perBankRdBursts::3              1440                       # Per bank write bursts
system.mem_ctrls.perBankRdBursts::4              1569                       # Per bank write bursts
system.mem_ctrls.perBankRdBursts::5              1167                       # Per bank write bursts
system.mem_ctrls.perBankRdBursts::6              1521                       # Per bank write bursts
system.mem_ctrls.perBankRdBursts::7              1144                       # Per bank write bursts
system.mem_ctrls.perBankRdBursts::8              1401                       # Per bank write bursts
system.mem_ctrls.perBankRdBursts::9              1463                       # Per bank write bursts
system.mem_ctrls.perBankRdBursts::10             1375                       # Per bank write bursts
system.mem_ctrls.perBankRdBursts::11             1685                       # Per bank write bursts
system.mem_ctrls.perBankRdBursts::12             1305                       # Per bank write bursts
system.mem_ctrls.perBankRdBursts::13             2063                       # Per bank write bursts
system.mem_ctrls.perBankRdBursts::14             1317                       # Per bank write bursts
system.mem_ctrls.perBankRdBursts::15              972                       # Per bank write bursts
system.mem_ctrls.perBankWrBursts::0               562                       # Per bank write bursts
system.mem_ctrls.perBankWrBursts::1               582                       # Per bank write bursts
system.mem_ctrls.perBankWrBursts::2               873                       # Per bank write bursts
system.mem_ctrls.perBankWrBursts::3              1028                       # Per bank write bursts
system.mem_ctrls.perBankWrBursts::4               913                       # Per bank write bursts
system.mem_ctrls.perBankWrBursts::5               638                       # Per bank write bursts
system.mem_ctrls.perBankWrBursts::6               799                       # Per bank write bursts
system.mem_ctrls.perBankWrBursts::7               435                       # Per bank write bursts
system.mem_ctrls.perBankWrBursts::8               401                       # Per bank write bursts
system.mem_ctrls.perBankWrBursts::9               689                       # Per bank write bursts
system.mem_ctrls.perBankWrBursts::10              296                       # Per bank write bursts
system.mem_ctrls.perBankWrBursts::11              429                       # Per bank write bursts
system.mem_ctrls.perBankWrBursts::12              276                       # Per bank write bursts
system.mem_ctrls.perBankWrBursts::13              517                       # Per bank write bursts
system.mem_ctrls.perBankWrBursts::14              533                       # Per bank write bursts
system.mem_ctrls.perBankWrBursts::15              498                       # Per bank write bursts
system.mem_ctrls.numRdRetry                         0                       # Number of times read queue was full causing retry
system.mem_ctrls.numWrRetry                         0                       # Number of times write queue was full causing retry
system.mem_ctrls.totGap                    1245436500                       # Total gap between requests
system.mem_ctrls.readPktSize::0                     0                       # Read request sizes (log2)
system.mem_ctrls.readPktSize::1                     0                       # Read request sizes (log2)
system.mem_ctrls.readPktSize::2                     0                       # Read request sizes (log2)
system.mem_ctrls.readPktSize::3                     0                       # Read request sizes (log2)
system.mem_ctrls.readPktSize::4                     0                       # Read request sizes (log2)
system.mem_ctrls.readPktSize::5                     0                       # Read request sizes (log2)
system.mem_ctrls.readPktSize::6                 22642                       # Read request sizes (log2)
system.mem_ctrls.writePktSize::0                    0                       # Write request sizes (log2)
system.mem_ctrls.writePktSize::1                    0                       # Write request sizes (log2)
system.mem_ctrls.writePktSize::2                    0                       # Write request sizes (log2)
system.mem_ctrls.writePktSize::3                    0                       # Write request sizes (log2)
system.mem_ctrls.writePktSize::4                    0                       # Write request sizes (log2)
system.mem_ctrls.writePktSize::5                    0                       # Write request sizes (log2)
system.mem_ctrls.writePktSize::6                 9502                       # Write request sizes (log2)
system.mem_ctrls.rdQLenPdf::0                   11718                       # What read queue length does an incoming req see
system.mem_ctrls.rdQLenPdf::1                    6050                       # What read queue length does an incoming req see
system.mem_ctrls.rdQLenPdf::2                    3145                       # What read queue length does an incoming req see
system.mem_ctrls.rdQLenPdf::3                    1605                       # What read queue length does an incoming req see
system.mem_ctrls.rdQLenPdf::4                      56                       # What read queue length does an incoming req see
system.mem_ctrls.rdQLenPdf::5                       4                       # What read queue length does an incoming req see
system.mem_ctrls.rdQLenPdf::6                       1                       # What read queue length does an incoming req see
system.mem_ctrls.rdQLenPdf::7                       0                       # What read queue length does an incoming req see
system.mem_ctrls.rdQLenPdf::8                       0                       # What read queue length does an incoming req see
system.mem_ctrls.rdQLenPdf::9                       0                       # What read queue length does an incoming req see
system.mem_ctrls.rdQLenPdf::10                      0                       # What read queue length does an incoming req see
system.mem_ctrls.rdQLenPdf::11                      0                       # What read queue length does an incoming req see
system.mem_ctrls.rdQLenPdf::12                      0                       # What read queue length does an incoming req see
system.mem_ctrls.rdQLenPdf::13                      0                       # What read queue length does an incoming req see
system.mem_ctrls.rdQLenPdf::14                      0                       # What read queue length does an incoming req see
system.mem_ctrls.rdQLenPdf::15                      0                       # What read queue length does an incoming req see
system.mem_ctrls.rdQLenPdf::16                      0                       # What read queue length does an incoming req see
system.mem_ctrls.rdQLenPdf::17                      0                       # What read queue length does an incoming req see
system.mem_ctrls.rdQLenPdf::18                      0                       # What read queue length does an incoming req see
system.mem_ctrls.rdQLenPdf::19                      0                       # What read queue length does an incoming req see
system.mem_ctrls.rdQLenPdf::20                      0                       # What read queue length does an incoming req see
system.mem_ctrls.rdQLenPdf::21                      0                       # What read queue length does an incoming req see
system.mem_ctrls.rdQLenPdf::22                      0                       # What read queue length does an incoming req see
system.mem_ctrls.rdQLenPdf::23                      0                       # What read queue length does an incoming req see
system.mem_ctrls.rdQLenPdf::24                      0                       # What read queue length does an incoming req see
system.mem_ctrls.rdQLenPdf::25                      0                       # What read queue length does an incoming req see
system.mem_ctrls.rdQLenPdf::26                      0                       # What read queue length does an incoming req see
system.mem_ctrls.rdQLenPdf::27                      0                       # What read queue length does an incoming req see
system.mem_ctrls.rdQLenPdf::28                      0                       # What read queue length does an incoming req see
system.mem_ctrls.rdQLenPdf::29                      0                       # What read queue length does an incoming req see
system.mem_ctrls.rdQLenPdf::30                      0                       # What read queue length does an incoming req see
system.mem_ctrls.rdQLenPdf::31                      0                       # What read queue length does an incoming req see
system.mem_ctrls.wrQLenPdf::0                       1                       # What write queue length does an incoming req see
system.mem_ctrls.wrQLenPdf::1                       1                       # What write queue length does an incoming req see
system.mem_ctrls.wrQLenPdf::2                       1                       # What write queue length does an incoming req see
system.mem_ctrls.wrQLenPdf::3                       1                       # What write queue length does an incoming req see
system.mem_ctrls.wrQLenPdf::4                       1                       # What write queue length does an incoming req see
system.mem_ctrls.wrQLenPdf::5                       1                       # What write queue length does an incoming req see
system.mem_ctrls.wrQLenPdf::6                       1                       # What write queue length does an incoming req see
system.mem_ctrls.wrQLenPdf::7                       1                       # What write queue length does an incoming req see
system.mem_ctrls.wrQLenPdf::8                       1                       # What write queue length does an incoming req see
system.mem_ctrls.wrQLenPdf::9                       1                       # What write queue length does an incoming req see
system.mem_ctrls.wrQLenPdf::10                      1                       # What write queue length does an incoming req see
system.mem_ctrls.wrQLenPdf::11                      1                       # What write queue length does an incoming req see
system.mem_ctrls.wrQLenPdf::12                      1                       # What write queue length does an incoming req see
system.mem_ctrls.wrQLenPdf::13                      1                       # What write queue length does an incoming req see
system.mem_ctrls.wrQLenPdf::14                      1                       # What write queue length does an incoming req see
system.mem_ctrls.wrQLenPdf::15                     50                       # What write queue length does an incoming req see
system.mem_ctrls.wrQLenPdf::16                     53                       # What write queue length does an incoming req see
system.mem_ctrls.wrQLenPdf::17                    277                       # What write queue length does an incoming req see
system.mem_ctrls.wrQLenPdf::18                    430                       # What write queue length does an incoming req see
system.mem_ctrls.wrQLenPdf::19                    537                       # What write queue length does an incoming req see
system.mem_ctrls.wrQLenPdf::20                    599                       # What write queue length does an incoming req see
system.mem_ctrls.wrQLenPdf::21                    624                       # What write queue length does an incoming req see
system.mem_ctrls.wrQLenPdf::22                    616                       # What write queue length does an incoming req see
system.mem_ctrls.wrQLenPdf::23                    599                       # What write queue length does an incoming req see
system.mem_ctrls.wrQLenPdf::24                    612                       # What write queue length does an incoming req see
system.mem_ctrls.wrQLenPdf::25                    629                       # What write queue length does an incoming req see
system.mem_ctrls.wrQLenPdf::26                    730                       # What write queue length does an incoming req see
system.mem_ctrls.wrQLenPdf::27                    631                       # What write queue length does an incoming req see
system.mem_ctrls.wrQLenPdf::28                    628                       # What write queue length does an incoming req see
system.mem_ctrls.wrQLenPdf::29                    677                       # What write queue length does an incoming req see
system.mem_ctrls.wrQLenPdf::30                    604                       # What write queue length does an incoming req see
system.mem_ctrls.wrQLenPdf::31                    597                       # What write queue length does an incoming req see
system.mem_ctrls.wrQLenPdf::32                    587                       # What write queue length does an incoming req see
system.mem_ctrls.wrQLenPdf::33                      3                       # What write queue length does an incoming req see
system.mem_ctrls.wrQLenPdf::34                      1                       # What write queue length does an incoming req see
system.mem_ctrls.wrQLenPdf::35                      1                       # What write queue length does an incoming req see
system.mem_ctrls.wrQLenPdf::36                      0                       # What write queue length does an incoming req see
system.mem_ctrls.wrQLenPdf::37                      0                       # What write queue length does an incoming req see
system.mem_ctrls.wrQLenPdf::38                      0                       # What write queue length does an incoming req see
system.mem_ctrls.wrQLenPdf::39                      0                       # What write queue length does an incoming req see
system.mem_ctrls.wrQLenPdf::40                      0                       # What write queue length does an incoming req see
system.mem_ctrls.wrQLenPdf::41                      0                       # What write queue length does an incoming req see
system.mem_ctrls.wrQLenPdf::42                      0                       # What write queue length does an incoming req see
system.mem_ctrls.wrQLenPdf::43                      0                       # What write queue length does an incoming req see
system.mem_ctrls.wrQLenPdf::44                      0                       # What write queue length does an incoming req see
system.mem_ctrls.wrQLenPdf::45                      0                       # What write queue length does an incoming req see
system.mem_ctrls.wrQLenPdf::46                      0                       # What write queue length does an incoming req see
system.mem_ctrls.wrQLenPdf::47                      0                       # What write queue length does an incoming req see
system.mem_ctrls.wrQLenPdf::48                      0                       # What write queue length does an incoming req see
system.mem_ctrls.wrQLenPdf::49                      0                       # What write queue length does an incoming req see
system.mem_ctrls.wrQLenPdf::50                      0                       # What write queue length does an incoming req see
system.mem_ctrls.wrQLenPdf::51                      0                       # What write queue length does an incoming req see
system.mem_ctrls.wrQLenPdf::52                      0                       # What write queue length does an incoming req see
system.mem_ctrls.wrQLenPdf::53                      0                       # What write queue length does an incoming req see
system.mem_ctrls.wrQLenPdf::54                      0                       # What write queue length does an incoming req see
system.mem_ctrls.wrQLenPdf::55                      0                       # What write queue length does an incoming req see
system.mem_ctrls.wrQLenPdf::56                      0                       # What write queue length does an incoming req see
system.mem_ctrls.wrQLenPdf::57                      0                       # What write queue length does an incoming req see
system.mem_ctrls.wrQLenPdf::58                      0                       # What write queue length does an incoming req see
system.mem_ctrls.wrQLenPdf::59                      0                       # What write queue length does an incoming req see
system.mem_ctrls.wrQLenPdf::60                      0                       # What write queue length does an incoming req see
system.mem_ctrls.wrQLenPdf::61                      0                       # What write queue length does an incoming req see
system.mem_ctrls.wrQLenPdf::62                      0                       # What write queue length does an incoming req see
system.mem_ctrls.wrQLenPdf::63                      0                       # What write queue length does an incoming req see
system.mem_ctrls.bytesPerActivate::samples         7966                       # Bytes accessed per row activation
system.mem_ctrls.bytesPerActivate::mean    257.245292                       # Bytes accessed per row activation
system.mem_ctrls.bytesPerActivate::gmean   149.107770                       # Bytes accessed per row activation
system.mem_ctrls.bytesPerActivate::stdev   307.295724                       # Bytes accessed per row activation
system.mem_ctrls.bytesPerActivate::0-127         3670     46.07%     46.07% # Bytes accessed per row activation
system.mem_ctrls.bytesPerActivate::128-255         1934     24.28%     70.35% # Bytes accessed per row activation
system.mem_ctrls.bytesPerActivate::256-383          663      8.32%     78.67% # Bytes accessed per row activation
system.mem_ctrls.bytesPerActivate::384-511          345      4.33%     83.00% # Bytes accessed per row activation
system.mem_ctrls.bytesPerActivate::512-639          211      2.65%     85.65% # Bytes accessed per row activation
system.mem_ctrls.bytesPerActivate::640-767          142      1.78%     87.43% # Bytes accessed per row activation
system.mem_ctrls.bytesPerActivate::768-895          117      1.47%     88.90% # Bytes accessed per row activation
system.mem_ctrls.bytesPerActivate::896-1023           97      1.22%     90.12% # Bytes accessed per row activation
system.mem_ctrls.bytesPerActivate::1024-1151          787      9.88%    100.00% # Bytes accessed per row activation
system.mem_ctrls.bytesPerActivate::total         7966                       # Bytes accessed per row activation
system.mem_ctrls.rdPerTurnAround::samples          584                       # Reads before turning the bus around for writes
system.mem_ctrls.rdPerTurnAround::mean      38.625000                       # Reads before turning the bus around for writes
system.mem_ctrls.rdPerTurnAround::gmean     31.713364                       # Reads before turning the bus around for writes
system.mem_ctrls.rdPerTurnAround::stdev     27.473451                       # Reads before turning the bus around for writes
system.mem_ctrls.rdPerTurnAround::8-15             42      7.19%      7.19% # Reads before turning the bus around for writes
system.mem_ctrls.rdPerTurnAround::16-23           179     30.65%     37.84% # Reads before turning the bus around for writes
system.mem_ctrls.rdPerTurnAround::24-31            71     12.16%     50.00% # Reads before turning the bus around for writes
system.mem_ctrls.rdPerTurnAround::32-39            59     10.10%     60.10% # Reads before turning the bus around for writes
system.mem_ctrls.rdPerTurnAround::40-47            73     12.50%     72.60% # Reads before turning the bus around for writes
system.mem_ctrls.rdPerTurnAround::48-55            52      8.90%     81.51% # Reads before turning the bus around for writes
system.mem_ctrls.rdPerTurnAround::56-63            31      5.31%     86.82% # Reads before turning the bus around for writes
system.mem_ctrls.rdPerTurnAround::64-71            19      3.25%     90.07% # Reads before turning the bus around for writes
system.mem_ctrls.rdPerTurnAround::72-79            15      2.57%     92.64% # Reads before turning the bus around for writes
system.mem_ctrls.rdPerTurnAround::80-87            12      2.05%     94.69% # Reads before turning the bus around for writes
system.mem_ctrls.rdPerTurnAround::88-95             5      0.86%     95.55% # Reads before turning the bus around for writes
system.mem_ctrls.rdPerTurnAround::96-103            6      1.03%     96.58% # Reads before turning the bus around for writes
system.mem_ctrls.rdPerTurnAround::104-111            5      0.86%     97.43% # Reads before turning the bus around for writes
system.mem_ctrls.rdPerTurnAround::112-119            4      0.68%     98.12% # Reads before turning the bus around for writes
system.mem_ctrls.rdPerTurnAround::120-127            3      0.51%     98.63% # Reads before turning the bus around for writes
system.mem_ctrls.rdPerTurnAround::128-135            2      0.34%     98.97% # Reads before turning the bus around for writes
system.mem_ctrls.rdPerTurnAround::136-143            3      0.51%     99.49% # Reads before turning the bus around for writes
system.mem_ctrls.rdPerTurnAround::184-191            2      0.34%     99.83% # Reads before turning the bus around for writes
system.mem_ctrls.rdPerTurnAround::248-255            1      0.17%    100.00% # Reads before turning the bus around for writes
system.mem_ctrls.rdPerTurnAround::total           584                       # Reads before turning the bus around for writes
system.mem_ctrls.wrPerTurnAround::samples          584                       # Writes before turning the bus around for reads
system.mem_ctrls.wrPerTurnAround::mean      16.214041                       # Writes before turning the bus around for reads
system.mem_ctrls.wrPerTurnAround::gmean     16.200550                       # Writes before turning the bus around for reads
system.mem_ctrls.wrPerTurnAround::stdev      0.690843                       # Writes before turning the bus around for reads
system.mem_ctrls.wrPerTurnAround::16              529     90.58%     90.58% # Writes before turning the bus around for reads
system.mem_ctrls.wrPerTurnAround::17                2      0.34%     90.92% # Writes before turning the bus around for reads
system.mem_ctrls.wrPerTurnAround::18               39      6.68%     97.60% # Writes before turning the bus around for reads
system.mem_ctrls.wrPerTurnAround::19               11      1.88%     99.49% # Writes before turning the bus around for reads
system.mem_ctrls.wrPerTurnAround::20                3      0.51%    100.00% # Writes before turning the bus around for reads
system.mem_ctrls.wrPerTurnAround::total           584                       # Writes before turning the bus around for reads
system.mem_ctrls.totQLat                    406191000                       # Total ticks spent queuing
system.mem_ctrls.totMemAccLat               829547250                       # Total ticks spent from burst creation until serviced by the DRAM
system.mem_ctrls.totBusLat                  112895000                       # Total ticks spent in databus transfers
system.mem_ctrls.avgQLat                     17989.77                       # Average queueing delay per DRAM burst
system.mem_ctrls.avgBusLat                    5000.00                       # Average bus latency per DRAM burst
system.mem_ctrls.avgMemAccLat                36739.77                       # Average memory access latency per DRAM burst
system.mem_ctrls.avgRdBW                      1160.25                       # Average DRAM read bandwidth in MiByte/s
system.mem_ctrls.avgWrBW                       486.58                       # Average achieved write bandwidth in MiByte/s
system.mem_ctrls.avgRdBWSys                   1163.49                       # Average system read bandwidth in MiByte/s
system.mem_ctrls.avgWrBWSys                    488.27                       # Average system write bandwidth in MiByte/s
system.mem_ctrls.peakBW                      12800.00                       # Theoretical peak bandwidth in MiByte/s
system.mem_ctrls.busUtil                        12.87                       # Data bus utilization in percentage
system.mem_ctrls.busUtilRead                     9.06                       # Data bus utilization in percentage for reads
system.mem_ctrls.busUtilWrite                    3.80                       # Data bus utilization in percentage for writes
system.mem_ctrls.avgRdQLen                       1.74                       # Average read queue length when enqueuing
system.mem_ctrls.avgWrQLen                      25.64                       # Average write queue length when enqueuing
system.mem_ctrls.readRowHits                    17090                       # Number of row buffer hits during reads
system.mem_ctrls.writeRowHits                    6977                       # Number of row buffer hits during writes
system.mem_ctrls.readRowHitRate                 75.69                       # Row buffer hit rate for reads
system.mem_ctrls.writeRowHitRate                73.44                       # Row buffer hit rate for writes
system.mem_ctrls.avgGap                      38745.54                       # Average gap between requests
system.mem_ctrls.pageHitRate                    75.02                       # Row buffer hit rate, read and write combined
system.mem_ctrls_0.actEnergy                 29567160                       # Energy for activate commands per rank (pJ)
system.mem_ctrls_0.preEnergy                 16132875                       # Energy for precharge commands per rank (pJ)
system.mem_ctrls_0.readEnergy                85386600                       # Energy for read commands per rank (pJ)
system.mem_ctrls_0.writeEnergy               37532160                       # Energy for write commands per rank (pJ)
system.mem_ctrls_0.refreshEnergy             80861040                       # Energy for refresh commands per rank (pJ)
system.mem_ctrls_0.actBackEnergy            808606845                       # Energy for active background per rank (pJ)
system.mem_ctrls_0.preBackEnergy             33695250                       # Energy for precharge background per rank (pJ)
system.mem_ctrls_0.totalEnergy             1091781930                       # Total energy per rank (pJ)
system.mem_ctrls_0.averagePower            881.654911                       # Core power per rank (mW)
system.mem_ctrls_0.memoryStateTime::IDLE     50992000                       # Time in different power states
system.mem_ctrls_0.memoryStateTime::REF      41340000                       # Time in different power states
system.mem_ctrls_0.memoryStateTime::PRE_PDN            0                       # Time in different power states
system.mem_ctrls_0.memoryStateTime::ACT    1146013750                       # Time in different power states
system.mem_ctrls_0.memoryStateTime::ACT_PDN            0                       # Time in different power states
system.mem_ctrls_1.actEnergy                 30255120                       # Energy for activate commands per rank (pJ)
system.mem_ctrls_1.preEnergy                 16508250                       # Energy for precharge commands per rank (pJ)
system.mem_ctrls_1.readEnergy                89887200                       # Energy for read commands per rank (pJ)
system.mem_ctrls_1.writeEnergy               23515920                       # Energy for write commands per rank (pJ)
system.mem_ctrls_1.refreshEnergy             80861040                       # Energy for refresh commands per rank (pJ)
system.mem_ctrls_1.actBackEnergy            824940765                       # Energy for active background per rank (pJ)
system.mem_ctrls_1.preBackEnergy             19332000                       # Energy for precharge background per rank (pJ)
system.mem_ctrls_1.totalEnergy             1085300295                       # Total energy per rank (pJ)
system.mem_ctrls_1.averagePower            876.462329                       # Core power per rank (mW)
system.mem_ctrls_1.memoryStateTime::IDLE     27203500                       # Time in different power states
system.mem_ctrls_1.memoryStateTime::REF      41340000                       # Time in different power states
system.mem_ctrls_1.memoryStateTime::PRE_PDN            0                       # Time in different power states
system.mem_ctrls_1.memoryStateTime::ACT    1169925500                       # Time in different power states
system.mem_ctrls_1.memoryStateTime::ACT_PDN            0                       # Time in different power states
system.cpu_voltage_domain.voltage                   1                       # Voltage in Volts
system.cpu_clk_domain.clock                       500                       # Clock period in ticks
system.cpu.dtb.fetch_hits                           0                       # ITB hits
system.cpu.dtb.fetch_misses                         0                       # ITB misses
system.cpu.dtb.fetch_acv                            0                       # ITB acv
system.cpu.dtb.fetch_accesses                       0                       # ITB accesses
system.cpu.dtb.read_hits                            0                       # DTB read hits
system.cpu.dtb.read_misses                          0                       # DTB read misses
system.cpu.dtb.read_acv                             0                       # DTB read access violations
system.cpu.dtb.read_accesses                        0                       # DTB read accesses
system.cpu.dtb.write_hits                           0                       # DTB write hits
system.cpu.dtb.write_misses                         0                       # DTB write misses
system.cpu.dtb.write_acv                            0                       # DTB write access violations
system.cpu.dtb.write_accesses                       0                       # DTB write accesses
system.cpu.dtb.data_hits                            0                       # DTB hits
system.cpu.dtb.data_misses                          0                       # DTB misses
system.cpu.dtb.data_acv                             0                       # DTB access violations
system.cpu.dtb.data_accesses                        0                       # DTB accesses
system.cpu.itb.fetch_hits                           0                       # ITB hits
system.cpu.itb.fetch_misses                         0                       # ITB misses
system.cpu.itb.fetch_acv                            0                       # ITB acv
system.cpu.itb.fetch_accesses                       0                       # ITB accesses
system.cpu.itb.read_hits                            0                       # DTB read hits
system.cpu.itb.read_misses                          0                       # DTB read misses
system.cpu.itb.read_acv                             0                       # DTB read access violations
system.cpu.itb.read_accesses                        0                       # DTB read accesses
system.cpu.itb.write_hits                           0                       # DTB write hits
system.cpu.itb.write_misses                         0                       # DTB write misses
system.cpu.itb.write_acv                            0                       # DTB write access violations
system.cpu.itb.write_accesses                       0                       # DTB write accesses
system.cpu.itb.data_hits                            0                       # DTB hits
system.cpu.itb.data_misses                          0                       # DTB misses
system.cpu.itb.data_acv                             0                       # DTB access violations
system.cpu.itb.data_accesses                        0                       # DTB accesses
system.cpu.numCycles                                0                       # number of cpu cycles simulated
system.cpu.numWorkItemsStarted                      0                       # number of work items this cpu started
system.cpu.numWorkItemsCompleted                    0                       # number of work items this cpu completed
system.cpu.committedInsts                           0                       # Number of instructions committed
system.cpu.committedOps                             0                       # Number of ops (including micro ops) committed
system.cpu.num_int_alu_accesses                     0                       # Number of integer alu accesses
system.cpu.num_fp_alu_accesses                      0                       # Number of float alu accesses
system.cpu.num_func_calls                           0                       # number of times a function call or return occured
system.cpu.num_conditional_control_insts            0                       # number of instructions that are conditional controls
system.cpu.num_int_insts                            0                       # number of integer instructions
system.cpu.num_fp_insts                             0                       # number of float instructions
system.cpu.num_int_register_reads                   0                       # number of times the integer registers were read
system.cpu.num_int_register_writes                  0                       # number of times the integer registers were written
system.cpu.num_fp_register_reads                    0                       # number of times the floating registers were read
system.cpu.num_fp_register_writes                   0                       # number of times the floating registers were written
system.cpu.num_mem_refs                             0                       # number of memory refs
system.cpu.num_load_insts                           0                       # Number of load instructions
system.cpu.num_store_insts                          0                       # Number of store instructions
system.cpu.num_idle_cycles                          0                       # Number of idle cycles
system.cpu.num_busy_cycles                          0                       # Number of busy cycles
system.cpu.not_idle_fraction                        1                       # Percentage of non-idle cycles
system.cpu.idle_fraction                            0                       # Percentage of idle cycles
system.cpu.op_class::No_OpClass                     0                       # Class of executed instruction
system.cpu.op_class::IntAlu                         0                       # Class of executed instruction
system.cpu.op_class::IntMult                        0                       # Class of executed instruction
system.cpu.op_class::IntDiv                         0                       # Class of executed instruction
system.cpu.op_class::FloatAdd                       0                       # Class of executed instruction
system.cpu.op_class::FloatCmp                       0                       # Class of executed instruction
system.cpu.op_class::FloatCvt                       0                       # Class of executed instruction
system.cpu.op_class::FloatMult                      0                       # Class of executed instruction
system.cpu.op_class::FloatDiv                       0                       # Class of executed instruction
system.cpu.op_class::FloatSqrt                      0                       # Class of executed instruction
system.cpu.op_class::SimdAdd                        0                       # Class of executed instruction
system.cpu.op_class::SimdAddAcc                     0                       # Class of executed instruction
system.cpu.op_class::SimdAlu                        0                       # Class of executed instruction
system.cpu.op_class::SimdCmp                        0                       # Class of executed instruction
system.cpu.op_class::SimdCvt                        0                       # Class of executed instruction
system.cpu.op_class::SimdMisc                       0                       # Class of executed instruction
system.cpu.op_class::SimdMult                       0                       # Class of executed instruction
system.cpu.op_class::SimdMultAcc                    0                       # Class of executed instruction
system.cpu.op_class::SimdShift                      0                       # Class of executed instruction
system.cpu.op_class::SimdShiftAcc                   0                       # Class of executed instruction
system.cpu.op_class::SimdSqrt                       0                       # Class of executed instruction
system.cpu.op_class::SimdFloatAdd                   0                       # Class of executed instruction
system.cpu.op_class::SimdFloatAlu                   0                       # Class of executed instruction
system.cpu.op_class::SimdFloatCmp                   0                       # Class of executed instruction
system.cpu.op_class::SimdFloatCvt                   0                       # Class of executed instruction
system.cpu.op_class::SimdFloatDiv                   0                       # Class of executed instruction
system.cpu.op_class::SimdFloatMisc                  0                       # Class of executed instruction
system.cpu.op_class::SimdFloatMult                  0                       # Class of executed instruction
system.cpu.op_class::SimdFloatMultAcc               0                       # Class of executed instruction
system.cpu.op_class::SimdFloatSqrt                  0                       # Class of executed instruction
system.cpu.op_class::MemRead                        0                       # Class of executed instruction
system.cpu.op_class::MemWrite                       0                       # Class of executed instruction
system.cpu.op_class::IprAccess                      0                       # Class of executed instruction
system.cpu.op_class::InstPrefetch                   0                       # Class of executed instruction
system.cpu.op_class::total                          0                       # Class of executed instruction
system.cpu.kern.inst.arm                            0                       # number of arm instructions executed
system.cpu.kern.inst.quiesce                        0                       # number of quiesce instructions executed
system.cpu.kern.inst.hwrei                       2781                       # number of hwrei instructions executed
system.cpu.kern.ipl_count::0                      635     49.15%     49.15% # number of times we switched to this ipl
system.cpu.kern.ipl_count::22                       1      0.08%     49.23% # number of times we switched to this ipl
system.cpu.kern.ipl_count::31                     656     50.77%    100.00% # number of times we switched to this ipl
system.cpu.kern.ipl_count::total                 1292                       # number of times we switched to this ipl
system.cpu.kern.ipl_good::0                       633     49.96%     49.96% # number of times we switched to this ipl from a different ipl
system.cpu.kern.ipl_good::22                        1      0.08%     50.04% # number of times we switched to this ipl from a different ipl
system.cpu.kern.ipl_good::31                      633     49.96%    100.00% # number of times we switched to this ipl from a different ipl
system.cpu.kern.ipl_good::total                  1267                       # number of times we switched to this ipl from a different ipl
system.cpu.kern.ipl_ticks::0               1134525000     91.22%     91.22% # number of cycles we spent at this ipl
system.cpu.kern.ipl_ticks::22                 1261000      0.10%     91.32% # number of cycles we spent at this ipl
system.cpu.kern.ipl_ticks::31               107933000      8.68%    100.00% # number of cycles we spent at this ipl
system.cpu.kern.ipl_ticks::total           1243719000                       # number of cycles we spent at this ipl
system.cpu.kern.ipl_used::0                  0.996850                       # fraction of swpipl calls that actually changed the ipl
system.cpu.kern.ipl_used::22                        1                       # fraction of swpipl calls that actually changed the ipl
system.cpu.kern.ipl_used::31                 0.964939                       # fraction of swpipl calls that actually changed the ipl
system.cpu.kern.ipl_used::total              0.980650                       # fraction of swpipl calls that actually changed the ipl
system.cpu.kern.syscall::2                          1      5.56%      5.56% # number of syscalls executed
system.cpu.kern.syscall::3                          2     11.11%     16.67% # number of syscalls executed
system.cpu.kern.syscall::6                          2     11.11%     27.78% # number of syscalls executed
system.cpu.kern.syscall::17                         1      5.56%     33.33% # number of syscalls executed
system.cpu.kern.syscall::19                         1      5.56%     38.89% # number of syscalls executed
system.cpu.kern.syscall::33                         1      5.56%     44.44% # number of syscalls executed
system.cpu.kern.syscall::45                         3     16.67%     61.11% # number of syscalls executed
system.cpu.kern.syscall::48                         1      5.56%     66.67% # number of syscalls executed
system.cpu.kern.syscall::59                         1      5.56%     72.22% # number of syscalls executed
system.cpu.kern.syscall::71                         4     22.22%     94.44% # number of syscalls executed
system.cpu.kern.syscall::74                         1      5.56%    100.00% # number of syscalls executed
system.cpu.kern.syscall::total                     18                       # number of syscalls executed
system.cpu.kern.callpal::swpctx                   118      8.10%      8.10% # number of callpals executed
system.cpu.kern.callpal::tbi                        6      0.41%      8.51% # number of callpals executed
system.cpu.kern.callpal::swpipl                  1107     75.98%     84.49% # number of callpals executed
system.cpu.kern.callpal::rdps                       3      0.21%     84.69% # number of callpals executed
system.cpu.kern.callpal::wrusp                      1      0.07%     84.76% # number of callpals executed
system.cpu.kern.callpal::rdusp                      1      0.07%     84.83% # number of callpals executed
system.cpu.kern.callpal::rti                      184     12.63%     97.46% # number of callpals executed
system.cpu.kern.callpal::callsys                   33      2.26%     99.73% # number of callpals executed
system.cpu.kern.callpal::imb                        4      0.27%    100.00% # number of callpals executed
system.cpu.kern.callpal::total                   1457                       # number of callpals executed
system.cpu.kern.mode_switch::kernel               302                       # number of protection mode switches
system.cpu.kern.mode_switch::user                 181                       # number of protection mode switches
system.cpu.kern.mode_switch::idle                   0                       # number of protection mode switches
system.cpu.kern.mode_good::kernel                 181                      
system.cpu.kern.mode_good::user                   181                      
system.cpu.kern.mode_good::idle                     0                      
system.cpu.kern.mode_switch_good::kernel     0.599338                       # fraction of useful protection mode switches
system.cpu.kern.mode_switch_good::user              1                       # fraction of useful protection mode switches
system.cpu.kern.mode_switch_good::idle            nan                       # fraction of useful protection mode switches
system.cpu.kern.mode_switch_good::total      0.749482                       # fraction of useful protection mode switches
system.cpu.kern.mode_ticks::kernel          873868000     70.26%     70.26% # number of ticks spent at the given mode
system.cpu.kern.mode_ticks::user            369844000     29.74%    100.00% # number of ticks spent at the given mode
system.cpu.kern.mode_ticks::idle                    0      0.00%    100.00% # number of ticks spent at the given mode
system.cpu.kern.swap_context                      118                       # number of times the context was actually changed
system.cpu.dcache.tags.replacements             18288                       # number of replacements
system.cpu.dcache.tags.tagsinuse                  512                       # Cycle average of tags in use
system.cpu.dcache.tags.total_refs              200372                       # Total number of references to valid blocks.
system.cpu.dcache.tags.sampled_refs             18288                       # Sample count of references to valid blocks.
system.cpu.dcache.tags.avg_refs             10.956474                       # Average number of references to valid blocks.
system.cpu.dcache.tags.warmup_cycle                 0                       # Cycle when the warmup percentage was hit.
system.cpu.dcache.tags.occ_blocks::cpu.data    23.940432                       # Average occupied blocks per requestor
system.cpu.dcache.tags.occ_blocks::switch_cpus.data   488.059568                       # Average occupied blocks per requestor
system.cpu.dcache.tags.occ_percent::cpu.data     0.046759                       # Average percentage of cache occupancy
system.cpu.dcache.tags.occ_percent::switch_cpus.data     0.953241                       # Average percentage of cache occupancy
system.cpu.dcache.tags.occ_percent::total            1                       # Average percentage of cache occupancy
system.cpu.dcache.tags.occ_task_id_blocks::1024          512                       # Occupied blocks per task id
system.cpu.dcache.tags.age_task_id_blocks_1024::0           97                       # Occupied blocks per task id
system.cpu.dcache.tags.age_task_id_blocks_1024::1          357                       # Occupied blocks per task id
system.cpu.dcache.tags.age_task_id_blocks_1024::2           58                       # Occupied blocks per task id
system.cpu.dcache.tags.occ_task_id_percent::1024            1                       # Percentage of cache occupancy per task id
system.cpu.dcache.tags.tag_accesses           1187828                       # Number of tag accesses
system.cpu.dcache.tags.data_accesses          1187828                       # Number of data accesses
system.cpu.dcache.ReadReq_hits::switch_cpus.data       134328                       # number of ReadReq hits
system.cpu.dcache.ReadReq_hits::total          134328                       # number of ReadReq hits
system.cpu.dcache.WriteReq_hits::switch_cpus.data        58647                       # number of WriteReq hits
system.cpu.dcache.WriteReq_hits::total          58647                       # number of WriteReq hits
system.cpu.dcache.LoadLockedReq_hits::switch_cpus.data         2219                       # number of LoadLockedReq hits
system.cpu.dcache.LoadLockedReq_hits::total         2219                       # number of LoadLockedReq hits
system.cpu.dcache.StoreCondReq_hits::switch_cpus.data         2376                       # number of StoreCondReq hits
system.cpu.dcache.StoreCondReq_hits::total         2376                       # number of StoreCondReq hits
system.cpu.dcache.demand_hits::switch_cpus.data       192975                       # number of demand (read+write) hits
system.cpu.dcache.demand_hits::total           192975                       # number of demand (read+write) hits
system.cpu.dcache.overall_hits::switch_cpus.data       192975                       # number of overall hits
system.cpu.dcache.overall_hits::total          192975                       # number of overall hits
system.cpu.dcache.ReadReq_misses::switch_cpus.data        26792                       # number of ReadReq misses
system.cpu.dcache.ReadReq_misses::total         26792                       # number of ReadReq misses
system.cpu.dcache.WriteReq_misses::switch_cpus.data        67617                       # number of WriteReq misses
system.cpu.dcache.WriteReq_misses::total        67617                       # number of WriteReq misses
system.cpu.dcache.LoadLockedReq_misses::switch_cpus.data          404                       # number of LoadLockedReq misses
system.cpu.dcache.LoadLockedReq_misses::total          404                       # number of LoadLockedReq misses
system.cpu.dcache.StoreCondReq_misses::switch_cpus.data            2                       # number of StoreCondReq misses
system.cpu.dcache.StoreCondReq_misses::total            2                       # number of StoreCondReq misses
system.cpu.dcache.demand_misses::switch_cpus.data        94409                       # number of demand (read+write) misses
system.cpu.dcache.demand_misses::total          94409                       # number of demand (read+write) misses
system.cpu.dcache.overall_misses::switch_cpus.data        94409                       # number of overall misses
system.cpu.dcache.overall_misses::total         94409                       # number of overall misses
system.cpu.dcache.ReadReq_miss_latency::switch_cpus.data   1642665251                       # number of ReadReq miss cycles
system.cpu.dcache.ReadReq_miss_latency::total   1642665251                       # number of ReadReq miss cycles
system.cpu.dcache.WriteReq_miss_latency::switch_cpus.data   5016126100                       # number of WriteReq miss cycles
system.cpu.dcache.WriteReq_miss_latency::total   5016126100                       # number of WriteReq miss cycles
system.cpu.dcache.LoadLockedReq_miss_latency::switch_cpus.data     28531750                       # number of LoadLockedReq miss cycles
system.cpu.dcache.LoadLockedReq_miss_latency::total     28531750                       # number of LoadLockedReq miss cycles
system.cpu.dcache.StoreCondReq_miss_latency::switch_cpus.data        47001                       # number of StoreCondReq miss cycles
system.cpu.dcache.StoreCondReq_miss_latency::total        47001                       # number of StoreCondReq miss cycles
system.cpu.dcache.demand_miss_latency::switch_cpus.data   6658791351                       # number of demand (read+write) miss cycles
system.cpu.dcache.demand_miss_latency::total   6658791351                       # number of demand (read+write) miss cycles
system.cpu.dcache.overall_miss_latency::switch_cpus.data   6658791351                       # number of overall miss cycles
system.cpu.dcache.overall_miss_latency::total   6658791351                       # number of overall miss cycles
system.cpu.dcache.ReadReq_accesses::switch_cpus.data       161120                       # number of ReadReq accesses(hits+misses)
system.cpu.dcache.ReadReq_accesses::total       161120                       # number of ReadReq accesses(hits+misses)
system.cpu.dcache.WriteReq_accesses::switch_cpus.data       126264                       # number of WriteReq accesses(hits+misses)
system.cpu.dcache.WriteReq_accesses::total       126264                       # number of WriteReq accesses(hits+misses)
system.cpu.dcache.LoadLockedReq_accesses::switch_cpus.data         2623                       # number of LoadLockedReq accesses(hits+misses)
system.cpu.dcache.LoadLockedReq_accesses::total         2623                       # number of LoadLockedReq accesses(hits+misses)
system.cpu.dcache.StoreCondReq_accesses::switch_cpus.data         2378                       # number of StoreCondReq accesses(hits+misses)
system.cpu.dcache.StoreCondReq_accesses::total         2378                       # number of StoreCondReq accesses(hits+misses)
system.cpu.dcache.demand_accesses::switch_cpus.data       287384                       # number of demand (read+write) accesses
system.cpu.dcache.demand_accesses::total       287384                       # number of demand (read+write) accesses
system.cpu.dcache.overall_accesses::switch_cpus.data       287384                       # number of overall (read+write) accesses
system.cpu.dcache.overall_accesses::total       287384                       # number of overall (read+write) accesses
system.cpu.dcache.ReadReq_miss_rate::switch_cpus.data     0.166286                       # miss rate for ReadReq accesses
system.cpu.dcache.ReadReq_miss_rate::total     0.166286                       # miss rate for ReadReq accesses
system.cpu.dcache.WriteReq_miss_rate::switch_cpus.data     0.535521                       # miss rate for WriteReq accesses
system.cpu.dcache.WriteReq_miss_rate::total     0.535521                       # miss rate for WriteReq accesses
system.cpu.dcache.LoadLockedReq_miss_rate::switch_cpus.data     0.154022                       # miss rate for LoadLockedReq accesses
system.cpu.dcache.LoadLockedReq_miss_rate::total     0.154022                       # miss rate for LoadLockedReq accesses
system.cpu.dcache.StoreCondReq_miss_rate::switch_cpus.data     0.000841                       # miss rate for StoreCondReq accesses
system.cpu.dcache.StoreCondReq_miss_rate::total     0.000841                       # miss rate for StoreCondReq accesses
system.cpu.dcache.demand_miss_rate::switch_cpus.data     0.328512                       # miss rate for demand accesses
system.cpu.dcache.demand_miss_rate::total     0.328512                       # miss rate for demand accesses
system.cpu.dcache.overall_miss_rate::switch_cpus.data     0.328512                       # miss rate for overall accesses
system.cpu.dcache.overall_miss_rate::total     0.328512                       # miss rate for overall accesses
system.cpu.dcache.ReadReq_avg_miss_latency::switch_cpus.data 61311.781539                       # average ReadReq miss latency
system.cpu.dcache.ReadReq_avg_miss_latency::total 61311.781539                       # average ReadReq miss latency
system.cpu.dcache.WriteReq_avg_miss_latency::switch_cpus.data 74184.392978                       # average WriteReq miss latency
system.cpu.dcache.WriteReq_avg_miss_latency::total 74184.392978                       # average WriteReq miss latency
system.cpu.dcache.LoadLockedReq_avg_miss_latency::switch_cpus.data 70623.143564                       # average LoadLockedReq miss latency
system.cpu.dcache.LoadLockedReq_avg_miss_latency::total 70623.143564                       # average LoadLockedReq miss latency
system.cpu.dcache.StoreCondReq_avg_miss_latency::switch_cpus.data 23500.500000                       # average StoreCondReq miss latency
system.cpu.dcache.StoreCondReq_avg_miss_latency::total 23500.500000                       # average StoreCondReq miss latency
system.cpu.dcache.demand_avg_miss_latency::switch_cpus.data 70531.319588                       # average overall miss latency
system.cpu.dcache.demand_avg_miss_latency::total 70531.319588                       # average overall miss latency
system.cpu.dcache.overall_avg_miss_latency::switch_cpus.data 70531.319588                       # average overall miss latency
system.cpu.dcache.overall_avg_miss_latency::total 70531.319588                       # average overall miss latency
system.cpu.dcache.blocked_cycles::no_mshrs       392003                       # number of cycles access was blocked
system.cpu.dcache.blocked_cycles::no_targets          125                       # number of cycles access was blocked
system.cpu.dcache.blocked::no_mshrs              7612                       # number of cycles access was blocked
system.cpu.dcache.blocked::no_targets               2                       # number of cycles access was blocked
system.cpu.dcache.avg_blocked_cycles::no_mshrs    51.498029                       # average number of cycles each access was blocked
system.cpu.dcache.avg_blocked_cycles::no_targets    62.500000                       # average number of cycles each access was blocked
system.cpu.dcache.fast_writes                       0                       # number of fast writes performed
system.cpu.dcache.cache_copies                      0                       # number of cache copies performed
system.cpu.dcache.writebacks::writebacks        11001                       # number of writebacks
system.cpu.dcache.writebacks::total             11001                       # number of writebacks
system.cpu.dcache.ReadReq_mshr_hits::switch_cpus.data        17820                       # number of ReadReq MSHR hits
system.cpu.dcache.ReadReq_mshr_hits::total        17820                       # number of ReadReq MSHR hits
system.cpu.dcache.WriteReq_mshr_hits::switch_cpus.data        58514                       # number of WriteReq MSHR hits
system.cpu.dcache.WriteReq_mshr_hits::total        58514                       # number of WriteReq MSHR hits
system.cpu.dcache.LoadLockedReq_mshr_hits::switch_cpus.data          180                       # number of LoadLockedReq MSHR hits
system.cpu.dcache.LoadLockedReq_mshr_hits::total          180                       # number of LoadLockedReq MSHR hits
system.cpu.dcache.demand_mshr_hits::switch_cpus.data        76334                       # number of demand (read+write) MSHR hits
system.cpu.dcache.demand_mshr_hits::total        76334                       # number of demand (read+write) MSHR hits
system.cpu.dcache.overall_mshr_hits::switch_cpus.data        76334                       # number of overall MSHR hits
system.cpu.dcache.overall_mshr_hits::total        76334                       # number of overall MSHR hits
system.cpu.dcache.ReadReq_mshr_misses::switch_cpus.data         8972                       # number of ReadReq MSHR misses
system.cpu.dcache.ReadReq_mshr_misses::total         8972                       # number of ReadReq MSHR misses
system.cpu.dcache.WriteReq_mshr_misses::switch_cpus.data         9103                       # number of WriteReq MSHR misses
system.cpu.dcache.WriteReq_mshr_misses::total         9103                       # number of WriteReq MSHR misses
system.cpu.dcache.LoadLockedReq_mshr_misses::switch_cpus.data          224                       # number of LoadLockedReq MSHR misses
system.cpu.dcache.LoadLockedReq_mshr_misses::total          224                       # number of LoadLockedReq MSHR misses
system.cpu.dcache.StoreCondReq_mshr_misses::switch_cpus.data            2                       # number of StoreCondReq MSHR misses
system.cpu.dcache.StoreCondReq_mshr_misses::total            2                       # number of StoreCondReq MSHR misses
system.cpu.dcache.demand_mshr_misses::switch_cpus.data        18075                       # number of demand (read+write) MSHR misses
system.cpu.dcache.demand_mshr_misses::total        18075                       # number of demand (read+write) MSHR misses
system.cpu.dcache.overall_mshr_misses::switch_cpus.data        18075                       # number of overall MSHR misses
system.cpu.dcache.overall_mshr_misses::total        18075                       # number of overall MSHR misses
system.cpu.dcache.WriteReq_mshr_uncacheable::switch_cpus.data            1                       # number of WriteReq MSHR uncacheable
system.cpu.dcache.WriteReq_mshr_uncacheable::total            1                       # number of WriteReq MSHR uncacheable
system.cpu.dcache.overall_mshr_uncacheable_misses::switch_cpus.data            1                       # number of overall MSHR uncacheable misses
system.cpu.dcache.overall_mshr_uncacheable_misses::total            1                       # number of overall MSHR uncacheable misses
system.cpu.dcache.ReadReq_mshr_miss_latency::switch_cpus.data    645300250                       # number of ReadReq MSHR miss cycles
system.cpu.dcache.ReadReq_mshr_miss_latency::total    645300250                       # number of ReadReq MSHR miss cycles
system.cpu.dcache.WriteReq_mshr_miss_latency::switch_cpus.data    776299013                       # number of WriteReq MSHR miss cycles
system.cpu.dcache.WriteReq_mshr_miss_latency::total    776299013                       # number of WriteReq MSHR miss cycles
system.cpu.dcache.LoadLockedReq_mshr_miss_latency::switch_cpus.data     15327750                       # number of LoadLockedReq MSHR miss cycles
system.cpu.dcache.LoadLockedReq_mshr_miss_latency::total     15327750                       # number of LoadLockedReq MSHR miss cycles
system.cpu.dcache.StoreCondReq_mshr_miss_latency::switch_cpus.data        43999                       # number of StoreCondReq MSHR miss cycles
system.cpu.dcache.StoreCondReq_mshr_miss_latency::total        43999                       # number of StoreCondReq MSHR miss cycles
system.cpu.dcache.demand_mshr_miss_latency::switch_cpus.data   1421599263                       # number of demand (read+write) MSHR miss cycles
system.cpu.dcache.demand_mshr_miss_latency::total   1421599263                       # number of demand (read+write) MSHR miss cycles
system.cpu.dcache.overall_mshr_miss_latency::switch_cpus.data   1421599263                       # number of overall MSHR miss cycles
system.cpu.dcache.overall_mshr_miss_latency::total   1421599263                       # number of overall MSHR miss cycles
system.cpu.dcache.WriteReq_mshr_uncacheable_latency::switch_cpus.data       223500                       # number of WriteReq MSHR uncacheable cycles
system.cpu.dcache.WriteReq_mshr_uncacheable_latency::total       223500                       # number of WriteReq MSHR uncacheable cycles
system.cpu.dcache.overall_mshr_uncacheable_latency::switch_cpus.data       223500                       # number of overall MSHR uncacheable cycles
system.cpu.dcache.overall_mshr_uncacheable_latency::total       223500                       # number of overall MSHR uncacheable cycles
system.cpu.dcache.ReadReq_mshr_miss_rate::switch_cpus.data     0.055685                       # mshr miss rate for ReadReq accesses
system.cpu.dcache.ReadReq_mshr_miss_rate::total     0.055685                       # mshr miss rate for ReadReq accesses
system.cpu.dcache.WriteReq_mshr_miss_rate::switch_cpus.data     0.072095                       # mshr miss rate for WriteReq accesses
system.cpu.dcache.WriteReq_mshr_miss_rate::total     0.072095                       # mshr miss rate for WriteReq accesses
system.cpu.dcache.LoadLockedReq_mshr_miss_rate::switch_cpus.data     0.085398                       # mshr miss rate for LoadLockedReq accesses
system.cpu.dcache.LoadLockedReq_mshr_miss_rate::total     0.085398                       # mshr miss rate for LoadLockedReq accesses
system.cpu.dcache.StoreCondReq_mshr_miss_rate::switch_cpus.data     0.000841                       # mshr miss rate for StoreCondReq accesses
system.cpu.dcache.StoreCondReq_mshr_miss_rate::total     0.000841                       # mshr miss rate for StoreCondReq accesses
system.cpu.dcache.demand_mshr_miss_rate::switch_cpus.data     0.062895                       # mshr miss rate for demand accesses
system.cpu.dcache.demand_mshr_miss_rate::total     0.062895                       # mshr miss rate for demand accesses
system.cpu.dcache.overall_mshr_miss_rate::switch_cpus.data     0.062895                       # mshr miss rate for overall accesses
system.cpu.dcache.overall_mshr_miss_rate::total     0.062895                       # mshr miss rate for overall accesses
system.cpu.dcache.ReadReq_avg_mshr_miss_latency::switch_cpus.data 71923.790682                       # average ReadReq mshr miss latency
system.cpu.dcache.ReadReq_avg_mshr_miss_latency::total 71923.790682                       # average ReadReq mshr miss latency
system.cpu.dcache.WriteReq_avg_mshr_miss_latency::switch_cpus.data 85279.469735                       # average WriteReq mshr miss latency
system.cpu.dcache.WriteReq_avg_mshr_miss_latency::total 85279.469735                       # average WriteReq mshr miss latency
system.cpu.dcache.LoadLockedReq_avg_mshr_miss_latency::switch_cpus.data 68427.455357                       # average LoadLockedReq mshr miss latency
system.cpu.dcache.LoadLockedReq_avg_mshr_miss_latency::total 68427.455357                       # average LoadLockedReq mshr miss latency
system.cpu.dcache.StoreCondReq_avg_mshr_miss_latency::switch_cpus.data 21999.500000                       # average StoreCondReq mshr miss latency
system.cpu.dcache.StoreCondReq_avg_mshr_miss_latency::total 21999.500000                       # average StoreCondReq mshr miss latency
system.cpu.dcache.demand_avg_mshr_miss_latency::switch_cpus.data 78650.028382                       # average overall mshr miss latency
system.cpu.dcache.demand_avg_mshr_miss_latency::total 78650.028382                       # average overall mshr miss latency
system.cpu.dcache.overall_avg_mshr_miss_latency::switch_cpus.data 78650.028382                       # average overall mshr miss latency
system.cpu.dcache.overall_avg_mshr_miss_latency::total 78650.028382                       # average overall mshr miss latency
system.cpu.dcache.WriteReq_avg_mshr_uncacheable_latency::switch_cpus.data       223500                       # average WriteReq mshr uncacheable latency
system.cpu.dcache.WriteReq_avg_mshr_uncacheable_latency::total       223500                       # average WriteReq mshr uncacheable latency
system.cpu.dcache.overall_avg_mshr_uncacheable_latency::switch_cpus.data       223500                       # average overall mshr uncacheable latency
system.cpu.dcache.overall_avg_mshr_uncacheable_latency::total       223500                       # average overall mshr uncacheable latency
system.cpu.dcache.no_allocate_misses                0                       # Number of misses that were no-allocate
system.cpu.icache.tags.replacements             10156                       # number of replacements
system.cpu.icache.tags.tagsinuse           511.747217                       # Cycle average of tags in use
system.cpu.icache.tags.total_refs              362267                       # Total number of references to valid blocks.
system.cpu.icache.tags.sampled_refs             10156                       # Sample count of references to valid blocks.
system.cpu.icache.tags.avg_refs             35.670244                       # Average number of references to valid blocks.
system.cpu.icache.tags.warmup_cycle                 0                       # Cycle when the warmup percentage was hit.
system.cpu.icache.tags.occ_blocks::cpu.inst    21.137276                       # Average occupied blocks per requestor
system.cpu.icache.tags.occ_blocks::switch_cpus.inst   490.609941                       # Average occupied blocks per requestor
system.cpu.icache.tags.occ_percent::cpu.inst     0.041284                       # Average percentage of cache occupancy
system.cpu.icache.tags.occ_percent::switch_cpus.inst     0.958223                       # Average percentage of cache occupancy
system.cpu.icache.tags.occ_percent::total     0.999506                       # Average percentage of cache occupancy
system.cpu.icache.tags.occ_task_id_blocks::1024          511                       # Occupied blocks per task id
system.cpu.icache.tags.age_task_id_blocks_1024::0           59                       # Occupied blocks per task id
system.cpu.icache.tags.age_task_id_blocks_1024::1           19                       # Occupied blocks per task id
system.cpu.icache.tags.age_task_id_blocks_1024::2          432                       # Occupied blocks per task id
system.cpu.icache.tags.age_task_id_blocks_1024::3            1                       # Occupied blocks per task id
system.cpu.icache.tags.occ_task_id_percent::1024     0.998047                       # Percentage of cache occupancy per task id
system.cpu.icache.tags.tag_accesses            339085                       # Number of tag accesses
system.cpu.icache.tags.data_accesses           339085                       # Number of data accesses
system.cpu.icache.ReadReq_hits::switch_cpus.inst       152298                       # number of ReadReq hits
system.cpu.icache.ReadReq_hits::total          152298                       # number of ReadReq hits
system.cpu.icache.demand_hits::switch_cpus.inst       152298                       # number of demand (read+write) hits
system.cpu.icache.demand_hits::total           152298                       # number of demand (read+write) hits
system.cpu.icache.overall_hits::switch_cpus.inst       152298                       # number of overall hits
system.cpu.icache.overall_hits::total          152298                       # number of overall hits
system.cpu.icache.ReadReq_misses::switch_cpus.inst        12160                       # number of ReadReq misses
system.cpu.icache.ReadReq_misses::total         12160                       # number of ReadReq misses
system.cpu.icache.demand_misses::switch_cpus.inst        12160                       # number of demand (read+write) misses
system.cpu.icache.demand_misses::total          12160                       # number of demand (read+write) misses
system.cpu.icache.overall_misses::switch_cpus.inst        12160                       # number of overall misses
system.cpu.icache.overall_misses::total         12160                       # number of overall misses
system.cpu.icache.ReadReq_miss_latency::switch_cpus.inst    759809998                       # number of ReadReq miss cycles
system.cpu.icache.ReadReq_miss_latency::total    759809998                       # number of ReadReq miss cycles
system.cpu.icache.demand_miss_latency::switch_cpus.inst    759809998                       # number of demand (read+write) miss cycles
system.cpu.icache.demand_miss_latency::total    759809998                       # number of demand (read+write) miss cycles
system.cpu.icache.overall_miss_latency::switch_cpus.inst    759809998                       # number of overall miss cycles
system.cpu.icache.overall_miss_latency::total    759809998                       # number of overall miss cycles
system.cpu.icache.ReadReq_accesses::switch_cpus.inst       164458                       # number of ReadReq accesses(hits+misses)
system.cpu.icache.ReadReq_accesses::total       164458                       # number of ReadReq accesses(hits+misses)
system.cpu.icache.demand_accesses::switch_cpus.inst       164458                       # number of demand (read+write) accesses
system.cpu.icache.demand_accesses::total       164458                       # number of demand (read+write) accesses
system.cpu.icache.overall_accesses::switch_cpus.inst       164458                       # number of overall (read+write) accesses
system.cpu.icache.overall_accesses::total       164458                       # number of overall (read+write) accesses
system.cpu.icache.ReadReq_miss_rate::switch_cpus.inst     0.073940                       # miss rate for ReadReq accesses
system.cpu.icache.ReadReq_miss_rate::total     0.073940                       # miss rate for ReadReq accesses
system.cpu.icache.demand_miss_rate::switch_cpus.inst     0.073940                       # miss rate for demand accesses
system.cpu.icache.demand_miss_rate::total     0.073940                       # miss rate for demand accesses
system.cpu.icache.overall_miss_rate::switch_cpus.inst     0.073940                       # miss rate for overall accesses
system.cpu.icache.overall_miss_rate::total     0.073940                       # miss rate for overall accesses
system.cpu.icache.ReadReq_avg_miss_latency::switch_cpus.inst 62484.374836                       # average ReadReq miss latency
system.cpu.icache.ReadReq_avg_miss_latency::total 62484.374836                       # average ReadReq miss latency
system.cpu.icache.demand_avg_miss_latency::switch_cpus.inst 62484.374836                       # average overall miss latency
system.cpu.icache.demand_avg_miss_latency::total 62484.374836                       # average overall miss latency
system.cpu.icache.overall_avg_miss_latency::switch_cpus.inst 62484.374836                       # average overall miss latency
system.cpu.icache.overall_avg_miss_latency::total 62484.374836                       # average overall miss latency
system.cpu.icache.blocked_cycles::no_mshrs         2324                       # number of cycles access was blocked
system.cpu.icache.blocked_cycles::no_targets            0                       # number of cycles access was blocked
system.cpu.icache.blocked::no_mshrs                32                       # number of cycles access was blocked
system.cpu.icache.blocked::no_targets               0                       # number of cycles access was blocked
system.cpu.icache.avg_blocked_cycles::no_mshrs    72.625000                       # average number of cycles each access was blocked
system.cpu.icache.avg_blocked_cycles::no_targets          nan                       # average number of cycles each access was blocked
system.cpu.icache.fast_writes                       0                       # number of fast writes performed
system.cpu.icache.cache_copies                      0                       # number of cache copies performed
system.cpu.icache.ReadReq_mshr_hits::switch_cpus.inst         1991                       # number of ReadReq MSHR hits
system.cpu.icache.ReadReq_mshr_hits::total         1991                       # number of ReadReq MSHR hits
system.cpu.icache.demand_mshr_hits::switch_cpus.inst         1991                       # number of demand (read+write) MSHR hits
system.cpu.icache.demand_mshr_hits::total         1991                       # number of demand (read+write) MSHR hits
system.cpu.icache.overall_mshr_hits::switch_cpus.inst         1991                       # number of overall MSHR hits
system.cpu.icache.overall_mshr_hits::total         1991                       # number of overall MSHR hits
system.cpu.icache.ReadReq_mshr_misses::switch_cpus.inst        10169                       # number of ReadReq MSHR misses
[...]
system.switch_cpus.iew.wb_count            2877237214                       # cumulative count of insts written-back
system.switch_cpus.iew.wb_producers        1917389728                       # num instructions producing a value
system.switch_cpus.iew.wb_consumers        2317909629                       # num instructions consuming a value
system.switch_cpus.iew.wb_penalized                 0                       # number of instrctions required to write to 'other' IQ
system.switch_cpus.iew.wb_rate               2.069611                       # insts written-back per cycle
system.switch_cpus.iew.wb_fanout             0.827206                       # average fanout of values written-back
system.switch_cpus.iew.wb_penalized_rate            0                       # fraction of instructions written-back that wrote to 'other' IQ
system.switch_cpus.commit.commitSquashedInsts    142595421                       # The number of squashed insts skipped by commit
system.switch_cpus.commit.commitNonSpecStalls        54853                       # The number of times commit has been forced to stall to communicate backwards
system.switch_cpus.commit.branchMispredicts      3591048                       # The number of times a branch was mispredicted
system.switch_cpus.commit.committed_per_cycle::samples   1063585456                       # Number of insts commited each cycle
system.switch_cpus.commit.committed_per_cycle::mean     2.781560                       # Number of insts commited each cycle
system.switch_cpus.commit.committed_per_cycle::stdev     3.195568                       # Number of insts commited each cycle
system.switch_cpus.commit.committed_per_cycle::underflows            0      0.00%      0.00% # Number of insts commited each cycle
system.switch_cpus.commit.committed_per_cycle::0    433051523     40.72%     40.72% # Number of insts commited each cycle
system.switch_cpus.commit.committed_per_cycle::1    116455621     10.95%     51.67% # Number of insts commited each cycle
system.switch_cpus.commit.committed_per_cycle::2    109232742     10.27%     61.94% # Number of insts commited each cycle
system.switch_cpus.commit.committed_per_cycle::3     48611065      4.57%     66.51% # Number of insts commited each cycle
system.switch_cpus.commit.committed_per_cycle::4     56793089      5.34%     71.85% # Number of insts commited each cycle
system.switch_cpus.commit.committed_per_cycle::5     22686569      2.13%     73.98% # Number of insts commited each cycle
system.switch_cpus.commit.committed_per_cycle::6     32767813      3.08%     77.06% # Number of insts commited each cycle
system.switch_cpus.commit.committed_per_cycle::7     11436296      1.08%     78.14% # Number of insts commited each cycle
system.switch_cpus.commit.committed_per_cycle::8    232550738     21.86%    100.00% # Number of insts commited each cycle
system.switch_cpus.commit.committed_per_cycle::overflows            0      0.00%    100.00% # Number of insts commited each cycle
system.switch_cpus.commit.committed_per_cycle::min_value            0                       # Number of insts commited each cycle
system.switch_cpus.commit.committed_per_cycle::max_value            8                       # Number of insts commited each cycle
system.switch_cpus.commit.committed_per_cycle::total   1063585456                       # Number of insts commited each cycle
system.switch_cpus.commit.committedInsts   2958426355                       # Number of instructions committed
system.switch_cpus.commit.committedOps     2958426355                       # Number of ops (including micro ops) committed
system.switch_cpus.commit.swp_count                 0                       # Number of s/w prefetches committed
system.switch_cpus.commit.refs              627027380                       # Number of memory references committed
system.switch_cpus.commit.loads             534711829                       # Number of loads committed
system.switch_cpus.commit.membars               18446                       # Number of memory barriers committed
system.switch_cpus.commit.branches           43284240                       # Number of branches committed
system.switch_cpus.commit.fp_insts             936781                       # Number of committed floating point instructions.
system.switch_cpus.commit.int_insts        2816397959                       # Number of committed integer instructions.
system.switch_cpus.commit.function_calls      1937227                       # Number of function calls committed.
system.switch_cpus.commit.op_class_0::No_OpClass    138699667      4.69%      4.69% # Class of committed instruction
system.switch_cpus.commit.op_class_0::IntAlu   2172595501     73.44%     78.13% # Class of committed instruction
system.switch_cpus.commit.op_class_0::IntMult     15537958      0.53%     78.65% # Class of committed instruction
system.switch_cpus.commit.op_class_0::IntDiv            0      0.00%     78.65% # Class of committed instruction
system.switch_cpus.commit.op_class_0::FloatAdd       888049      0.03%     78.68% # Class of committed instruction
system.switch_cpus.commit.op_class_0::FloatCmp            0      0.00%     78.68% # Class of committed instruction
system.switch_cpus.commit.op_class_0::FloatCvt         2454      0.00%     78.68% # Class of committed instruction
system.switch_cpus.commit.op_class_0::FloatMult            1      0.00%     78.68% # Class of committed instruction
system.switch_cpus.commit.op_class_0::FloatDiv          818      0.00%     78.68% # Class of committed instruction
system.switch_cpus.commit.op_class_0::FloatSqrt            0      0.00%     78.68% # Class of committed instruction
system.switch_cpus.commit.op_class_0::SimdAdd            0      0.00%     78.68% # Class of committed instruction
system.switch_cpus.commit.op_class_0::SimdAddAcc            0      0.00%     78.68% # Class of committed instruction
system.switch_cpus.commit.op_class_0::SimdAlu            0      0.00%     78.68% # Class of committed instruction
system.switch_cpus.commit.op_class_0::SimdCmp            0      0.00%     78.68% # Class of committed instruction
system.switch_cpus.commit.op_class_0::SimdCvt            0      0.00%     78.68% # Class of committed instruction
system.switch_cpus.commit.op_class_0::SimdMisc            0      0.00%     78.68% # Class of committed instruction
system.switch_cpus.commit.op_class_0::SimdMult            0      0.00%     78.68% # Class of committed instruction
system.switch_cpus.commit.op_class_0::SimdMultAcc            0      0.00%     78.68% # Class of committed instruction
system.switch_cpus.commit.op_class_0::SimdShift            0      0.00%     78.68% # Class of committed instruction
system.switch_cpus.commit.op_class_0::SimdShiftAcc            0      0.00%     78.68% # Class of committed instruction
system.switch_cpus.commit.op_class_0::SimdSqrt            0      0.00%     78.68% # Class of committed instruction
system.switch_cpus.commit.op_class_0::SimdFloatAdd            0      0.00%     78.68% # Class of committed instruction
system.switch_cpus.commit.op_class_0::SimdFloatAlu            0      0.00%     78.68% # Class of committed instruction
system.switch_cpus.commit.op_class_0::SimdFloatCmp            0      0.00%     78.68% # Class of committed instruction
system.switch_cpus.commit.op_class_0::SimdFloatCvt            0      0.00%     78.68% # Class of committed instruction
system.switch_cpus.commit.op_class_0::SimdFloatDiv            0      0.00%     78.68% # Class of committed instruction
system.switch_cpus.commit.op_class_0::SimdFloatMisc            0      0.00%     78.68% # Class of committed instruction
system.switch_cpus.commit.op_class_0::SimdFloatMult            0      0.00%     78.68% # Class of committed instruction
system.switch_cpus.commit.op_class_0::SimdFloatMultAcc            0      0.00%     78.68% # Class of committed instruction
system.switch_cpus.commit.op_class_0::SimdFloatSqrt            0      0.00%     78.68% # Class of committed instruction
system.switch_cpus.commit.op_class_0::MemRead    534730275     18.07%     96.76% # Class of committed instruction
system.switch_cpus.commit.op_class_0::MemWrite     92317581      3.12%     99.88% # Class of committed instruction
system.switch_cpus.commit.op_class_0::IprAccess      3654051      0.12%    100.00% # Class of committed instruction
system.switch_cpus.commit.op_class_0::InstPrefetch            0      0.00%    100.00% # Class of committed instruction
system.switch_cpus.commit.op_class_0::total   2958426355                       # Class of committed instruction
system.switch_cpus.commit.bw_lim_events     232550738                       # number cycles where commit BW limit reached
system.switch_cpus.rob.rob_reads           3926923690                       # The number of ROB reads
system.switch_cpus.rob.rob_writes          6222804317                       # The number of ROB writes
system.switch_cpus.timesIdled                 5529363                       # Number of times that the entire CPU went into an idle state and unscheduled itself
system.switch_cpus.idleCycles               305950240                       # Total number of cycles that the CPU has spent unscheduled due to idling
system.switch_cpus.committedInsts          2819728324                       # Number of Instructions Simulated
system.switch_cpus.committedOps            2819728324                       # Number of Ops (including micro ops) Simulated
system.switch_cpus.cpi                       0.493037                       # CPI: Cycles Per Instruction
system.switch_cpus.cpi_total                 0.493037                       # CPI: Total CPI of All Threads
system.switch_cpus.ipc                       2.028244                       # IPC: Instructions Per Cycle
system.switch_cpus.ipc_total                 2.028244                       # IPC: Total IPC of All Threads
system.switch_cpus.int_regfile_reads       4678101497                       # number of integer regfile reads
system.switch_cpus.int_regfile_writes      2726959972                       # number of integer regfile writes
system.switch_cpus.fp_regfile_reads             67608                       # number of floating regfile reads
system.switch_cpus.fp_regfile_writes            66952                       # number of floating regfile writes
system.switch_cpus.misc_regfile_reads         3264564                       # number of misc regfile reads
system.switch_cpus.misc_regfile_writes        1528311                       # number of misc regfile writes
system.tol2bus.trans_dist::ReadReq            9688851                       # Transaction distribution
system.tol2bus.trans_dist::ReadResp           9688851                       # Transaction distribution
system.tol2bus.trans_dist::WriteReq               743                       # Transaction distribution
system.tol2bus.trans_dist::WriteResp              743                       # Transaction distribution
system.tol2bus.trans_dist::Writeback           743861                       # Transaction distribution
system.tol2bus.trans_dist::UpgradeReq              12                       # Transaction distribution
system.tol2bus.trans_dist::UpgradeResp             12                       # Transaction distribution
system.tol2bus.trans_dist::ReadExReq           408766                       # Transaction distribution
system.tol2bus.trans_dist::ReadExResp          408766                       # Transaction distribution
system.tol2bus.pkt_count_system.cpu.icache.mem_side::system.l2.cpu_side     14502590                       # Packet count per connected master and slave (bytes)
system.tol2bus.pkt_count_system.cpu.dcache.mem_side::system.l2.cpu_side      6437993                       # Packet count per connected master and slave (bytes)
system.tol2bus.pkt_count::total              20940583                       # Packet count per connected master and slave (bytes)
system.tol2bus.pkt_size_system.cpu.icache.mem_side::system.l2.cpu_side    464082176                       # Cumulative packet size per connected master and slave (bytes)
system.tol2bus.pkt_size_system.cpu.dcache.mem_side::system.l2.cpu_side    229772416                       # Cumulative packet size per connected master and slave (bytes)
system.tol2bus.pkt_size::total              693854592                       # Cumulative packet size per connected master and slave (bytes)
system.tol2bus.snoops                              22                       # Total snoops (count)
system.tol2bus.snoop_fanout::samples         10842233                       # Request fanout histogram
system.tol2bus.snoop_fanout::mean                   1                       # Request fanout histogram
system.tol2bus.snoop_fanout::stdev                  0                       # Request fanout histogram
system.tol2bus.snoop_fanout::underflows             0      0.00%      0.00% # Request fanout histogram
system.tol2bus.snoop_fanout::0                      0      0.00%      0.00% # Request fanout histogram
system.tol2bus.snoop_fanout::1               10842233    100.00%    100.00% # Request fanout histogram
system.tol2bus.snoop_fanout::2                      0      0.00%    100.00% # Request fanout histogram
system.tol2bus.snoop_fanout::overflows              0      0.00%    100.00% # Request fanout histogram
system.tol2bus.snoop_fanout::min_value              1                       # Request fanout histogram
system.tol2bus.snoop_fanout::max_value              1                       # Request fanout histogram
system.tol2bus.snoop_fanout::total           10842233                       # Request fanout histogram
system.tol2bus.reqLayer0.occupancy         6165349000                       # Layer occupancy (ticks)
system.tol2bus.reqLayer0.utilization              0.9                       # Layer utilization (%)
system.tol2bus.respLayer0.occupancy       11416296684                       # Layer occupancy (ticks)
system.tol2bus.respLayer0.utilization             1.6                       # Layer utilization (%)
system.tol2bus.respLayer1.occupancy        4529122623                       # Layer occupancy (ticks)
system.tol2bus.respLayer1.utilization             0.7                       # Layer utilization (%)
system.tsunami.ethernet.descDMAReads                0                       # Number of descriptors the device read w/ DMA
system.tsunami.ethernet.descDMAWrites               0                       # Number of descriptors the device wrote w/ DMA
system.tsunami.ethernet.descDmaReadBytes            0                       # number of descriptor bytes read w/ DMA
system.tsunami.ethernet.descDmaWriteBytes            0                       # number of descriptor bytes write w/ DMA
system.tsunami.ethernet.postedSwi                   0                       # number of software interrupts posted to CPU
system.tsunami.ethernet.coalescedSwi              nan                       # average number of Swi's coalesced into each post
system.tsunami.ethernet.totalSwi                    0                       # total number of Swi written to ISR
system.tsunami.ethernet.postedRxIdle                0                       # number of rxIdle interrupts posted to CPU
system.tsunami.ethernet.coalescedRxIdle           nan                       # average number of RxIdle's coalesced into each post
system.tsunami.ethernet.totalRxIdle                 0                       # total number of RxIdle written to ISR
system.tsunami.ethernet.postedRxOk                  0                       # number of RxOk interrupts posted to CPU
system.tsunami.ethernet.coalescedRxOk             nan                       # average number of RxOk's coalesced into each post
system.tsunami.ethernet.totalRxOk                   0                       # total number of RxOk written to ISR
system.tsunami.ethernet.postedRxDesc                0                       # number of RxDesc interrupts posted to CPU
system.tsunami.ethernet.coalescedRxDesc           nan                       # average number of RxDesc's coalesced into each post
system.tsunami.ethernet.totalRxDesc                 0                       # total number of RxDesc written to ISR
system.tsunami.ethernet.postedTxOk                  0                       # number of TxOk interrupts posted to CPU
system.tsunami.ethernet.coalescedTxOk             nan                       # average number of TxOk's coalesced into each post
system.tsunami.ethernet.totalTxOk                   0                       # total number of TxOk written to ISR
system.tsunami.ethernet.postedTxIdle                0                       # number of TxIdle interrupts posted to CPU
system.tsunami.ethernet.coalescedTxIdle           nan                       # average number of TxIdle's coalesced into each post
system.tsunami.ethernet.totalTxIdle                 0                       # total number of TxIdle written to ISR
system.tsunami.ethernet.postedTxDesc                0                       # number of TxDesc interrupts posted to CPU
system.tsunami.ethernet.coalescedTxDesc           nan                       # average number of TxDesc's coalesced into each post
system.tsunami.ethernet.totalTxDesc                 0                       # total number of TxDesc written to ISR
system.tsunami.ethernet.postedRxOrn                 0                       # number of RxOrn posted to CPU
system.tsunami.ethernet.coalescedRxOrn            nan                       # average number of RxOrn's coalesced into each post
system.tsunami.ethernet.totalRxOrn                  0                       # total number of RxOrn written to ISR
system.tsunami.ethernet.coalescedTotal            nan                       # average number of interrupts coalesced into each post
system.tsunami.ethernet.postedInterrupts            0                       # number of posts to CPU
system.tsunami.ethernet.droppedPackets              0                       # number of packets dropped
system.switch_cpus.kern.inst.arm                    0                       # number of arm instructions executed
system.switch_cpus.kern.inst.quiesce                0                       # number of quiesce instructions executed
system.switch_cpus.kern.inst.hwrei                  0                       # number of hwrei instructions executed
system.switch_cpus.kern.mode_switch::kernel            0                       # number of protection mode switches
system.switch_cpus.kern.mode_switch::user            0                       # number of protection mode switches
system.switch_cpus.kern.mode_switch::idle            0                       # number of protection mode switches
system.switch_cpus.kern.mode_good::kernel            0                      
system.switch_cpus.kern.mode_good::user             0                      
system.switch_cpus.kern.mode_good::idle             0                      
system.switch_cpus.kern.mode_switch_good::kernel          nan                       # fraction of useful protection mode switches
system.switch_cpus.kern.mode_switch_good::user          nan                       # fraction of useful protection mode switches
system.switch_cpus.kern.mode_switch_good::idle          nan                       # fraction of useful protection mode switches
system.switch_cpus.kern.mode_switch_good::total          nan                       # fraction of useful protection mode switches
system.switch_cpus.kern.mode_ticks::kernel            0                       # number of ticks spent at the given mode
system.switch_cpus.kern.mode_ticks::user            0                       # number of ticks spent at the given mode
system.switch_cpus.kern.mode_ticks::idle            0                       # number of ticks spent at the given mode
system.switch_cpus.kern.swap_context                0                       # number of times the context was actually changed

---------- End Simulation Statistics   ----------
