
---------- Begin Simulation Statistics ----------
sim_seconds                                  0.001193                       # Number of seconds simulated
sim_ticks                                  1193133500                       # Number of ticks simulated
final_tick                               2262444294000                       # Number of ticks from beginning of simulation (restored from checkpoints and never reset)
sim_freq                                 1000000000000                       # Frequency of simulated ticks
host_inst_rate                               32259224                       # Simulator instruction rate (inst/s)
host_op_rate                                 32259153                       # Simulator op (including micro ops) rate (op/s)
host_tick_rate                              326486167                       # Simulator tick rate (ticks/s)
host_mem_usage                                 741908                       # Number of bytes of host memory used
host_seconds                                     3.65                       # Real time elapsed on the host
sim_insts                                   117889839                       # Number of instructions simulated
sim_ops                                     117889839                       # Number of ops (including micro ops) simulated
system.voltage_domain.voltage                       1                       # Voltage in Volts
system.clk_domain.clock                          1000                       # Clock period in ticks
system.mem_ctrls.bytes_read::switch_cpus0.inst       179840                       # Number of bytes read from this memory
system.mem_ctrls.bytes_read::switch_cpus0.data       246016                       # Number of bytes read from this memory
system.mem_ctrls.bytes_read::switch_cpus1.inst        73728                       # Number of bytes read from this memory
system.mem_ctrls.bytes_read::switch_cpus1.data       138240                       # Number of bytes read from this memory
system.mem_ctrls.bytes_read::switch_cpus2.inst         4864                       # Number of bytes read from this memory
system.mem_ctrls.bytes_read::switch_cpus2.data         2560                       # Number of bytes read from this memory
system.mem_ctrls.bytes_read::switch_cpus3.inst       241472                       # Number of bytes read from this memory
system.mem_ctrls.bytes_read::switch_cpus3.data       692480                       # Number of bytes read from this memory
system.mem_ctrls.bytes_read::total            1579200                       # Number of bytes read from this memory
system.mem_ctrls.bytes_inst_read::switch_cpus0.inst       179840                       # Number of instructions bytes read from this memory
system.mem_ctrls.bytes_inst_read::switch_cpus1.inst        73728                       # Number of instructions bytes read from this memory
system.mem_ctrls.bytes_inst_read::switch_cpus2.inst         4864                       # Number of instructions bytes read from this memory
system.mem_ctrls.bytes_inst_read::switch_cpus3.inst       241472                       # Number of instructions bytes read from this memory
system.mem_ctrls.bytes_inst_read::total        499904                       # Number of instructions bytes read from this memory
system.mem_ctrls.bytes_written::writebacks       667776                       # Number of bytes written to this memory
system.mem_ctrls.bytes_written::total          667776                       # Number of bytes written to this memory
system.mem_ctrls.num_reads::switch_cpus0.inst         2810                       # Number of read requests responded to by this memory
system.mem_ctrls.num_reads::switch_cpus0.data         3844                       # Number of read requests responded to by this memory
system.mem_ctrls.num_reads::switch_cpus1.inst         1152                       # Number of read requests responded to by this memory
system.mem_ctrls.num_reads::switch_cpus1.data         2160                       # Number of read requests responded to by this memory
system.mem_ctrls.num_reads::switch_cpus2.inst           76                       # Number of read requests responded to by this memory
system.mem_ctrls.num_reads::switch_cpus2.data           40                       # Number of read requests responded to by this memory
system.mem_ctrls.num_reads::switch_cpus3.inst         3773                       # Number of read requests responded to by this memory
system.mem_ctrls.num_reads::switch_cpus3.data        10820                       # Number of read requests responded to by this memory
system.mem_ctrls.num_reads::total               24675                       # Number of read requests responded to by this memory
system.mem_ctrls.num_writes::writebacks         10434                       # Number of write requests responded to by this memory
system.mem_ctrls.num_writes::total              10434                       # Number of write requests responded to by this memory
system.mem_ctrls.bw_read::switch_cpus0.inst    150729151                       # Total read bandwidth from this memory (bytes/s)
system.mem_ctrls.bw_read::switch_cpus0.data    206193188                       # Total read bandwidth from this memory (bytes/s)
system.mem_ctrls.bw_read::switch_cpus1.inst     61793588                       # Total read bandwidth from this memory (bytes/s)
system.mem_ctrls.bw_read::switch_cpus1.data    115862978                       # Total read bandwidth from this memory (bytes/s)
system.mem_ctrls.bw_read::switch_cpus2.inst      4076660                       # Total read bandwidth from this memory (bytes/s)
system.mem_ctrls.bw_read::switch_cpus2.data      2145611                       # Total read bandwidth from this memory (bytes/s)
system.mem_ctrls.bw_read::switch_cpus3.inst    202384729                       # Total read bandwidth from this memory (bytes/s)
system.mem_ctrls.bw_read::switch_cpus3.data    580387693                       # Total read bandwidth from this memory (bytes/s)
system.mem_ctrls.bw_read::total            1323573598                       # Total read bandwidth from this memory (bytes/s)
system.mem_ctrls.bw_inst_read::switch_cpus0.inst    150729151                       # Instruction read bandwidth from this memory (bytes/s)
system.mem_ctrls.bw_inst_read::switch_cpus1.inst     61793588                       # Instruction read bandwidth from this memory (bytes/s)
system.mem_ctrls.bw_inst_read::switch_cpus2.inst      4076660                       # Instruction read bandwidth from this memory (bytes/s)
system.mem_ctrls.bw_inst_read::switch_cpus3.inst    202384729                       # Instruction read bandwidth from this memory (bytes/s)
system.mem_ctrls.bw_inst_read::total        418984129                       # Instruction read bandwidth from this memory (bytes/s)
system.mem_ctrls.bw_write::writebacks       559682550                       # Write bandwidth from this memory (bytes/s)
system.mem_ctrls.bw_write::total            559682550                       # Write bandwidth from this memory (bytes/s)
system.mem_ctrls.bw_total::writebacks       559682550                       # Total bandwidth to/from this memory (bytes/s)
system.mem_ctrls.bw_total::switch_cpus0.inst    150729151                       # Total bandwidth to/from this memory (bytes/s)
system.mem_ctrls.bw_total::switch_cpus0.data    206193188                       # Total bandwidth to/from this memory (bytes/s)
system.mem_ctrls.bw_total::switch_cpus1.inst     61793588                       # Total bandwidth to/from this memory (bytes/s)
system.mem_ctrls.bw_total::switch_cpus1.data    115862978                       # Total bandwidth to/from this memory (bytes/s)
system.mem_ctrls.bw_total::switch_cpus2.inst      4076660                       # Total bandwidth to/from this memory (bytes/s)
system.mem_ctrls.bw_total::switch_cpus2.data      2145611                       # Total bandwidth to/from this memory (bytes/s)
system.mem_ctrls.bw_total::switch_cpus3.inst    202384729                       # Total bandwidth to/from this memory (bytes/s)
system.mem_ctrls.bw_total::switch_cpus3.data    580387693                       # Total bandwidth to/from this memory (bytes/s)
system.mem_ctrls.bw_total::total           1883256149                       # Total bandwidth to/from this memory (bytes/s)
system.mem_ctrls.readReqs                       24675                       # Number of read requests accepted
system.mem_ctrls.writeReqs                      10434                       # Number of write requests accepted
system.mem_ctrls.readBursts                     24675                       # Number of DRAM read bursts, including those serviced by the write queue
system.mem_ctrls.writeBursts                    10434                       # Number of DRAM write bursts, including those merged in the write queue
system.mem_ctrls.bytesReadDRAM                1575168                       # Total number of bytes read from DRAM
system.mem_ctrls.bytesReadWrQ                    4032                       # Total number of bytes read from write queue
system.mem_ctrls.bytesWritten                  666688                       # Total number of bytes written to DRAM
system.mem_ctrls.bytesReadSys                 1579200                       # Total read bytes from the system interface side
system.mem_ctrls.bytesWrittenSys               667776                       # Total written bytes from the system interface side
system.mem_ctrls.servicedByWrQ                     63                       # Number of DRAM read bursts serviced by the write queue
system.mem_ctrls.mergedWrBursts                     0                       # Number of DRAM write bursts merged with an existing one
system.mem_ctrls.neitherReadNorWriteReqs           59                       # Number of requests that are neither read nor write
system.mem_ctrls.perBankRdBursts::0              1145                       # Per bank write bursts
system.mem_ctrls.perBankRdBursts::1              1207                       # Per bank write bursts
system.mem_ctrls.perBankRdBursts::2              1569                       # Per bank write bursts
system.mem_ctrls.perBankRdBursts::3               970                       # Per bank write bursts
system.mem_ctrls.perBankRdBursts::4              1281                       # Per bank write bursts
system.mem_ctrls.perBankRdBursts::5              1969                       # Per bank write bursts
system.mem_ctrls.perBankRdBursts::6              1408                       # Per bank write bursts
system.mem_ctrls.perBankRdBursts::7              1206                       # Per bank write bursts
system.mem_ctrls.perBankRdBursts::8              1808                       # Per bank write bursts
system.mem_ctrls.perBankRdBursts::9              1916                       # Per bank write bursts
system.mem_ctrls.perBankRdBursts::10             1401                       # Per bank write bursts
system.mem_ctrls.perBankRdBursts::11             1295                       # Per bank write bursts
system.mem_ctrls.perBankRdBursts::12             1750                       # Per bank write bursts
system.mem_ctrls.perBankRdBursts::13             2453                       # Per bank write bursts
system.mem_ctrls.perBankRdBursts::14             1696                       # Per bank write bursts
system.mem_ctrls.perBankRdBursts::15             1538                       # Per bank write bursts
system.mem_ctrls.perBankWrBursts::0               419                       # Per bank write bursts
system.mem_ctrls.perBankWrBursts::1               625                       # Per bank write bursts
system.mem_ctrls.perBankWrBursts::2               386                       # Per bank write bursts
system.mem_ctrls.perBankWrBursts::3               201                       # Per bank write bursts
system.mem_ctrls.perBankWrBursts::4               338                       # Per bank write bursts
system.mem_ctrls.perBankWrBursts::5               798                       # Per bank write bursts
system.mem_ctrls.perBankWrBursts::6               401                       # Per bank write bursts
system.mem_ctrls.perBankWrBursts::7               294                       # Per bank write bursts
system.mem_ctrls.perBankWrBursts::8               451                       # Per bank write bursts
system.mem_ctrls.perBankWrBursts::9               612                       # Per bank write bursts
system.mem_ctrls.perBankWrBursts::10              773                       # Per bank write bursts
system.mem_ctrls.perBankWrBursts::11              760                       # Per bank write bursts
system.mem_ctrls.perBankWrBursts::12             1142                       # Per bank write bursts
system.mem_ctrls.perBankWrBursts::13             1208                       # Per bank write bursts
system.mem_ctrls.perBankWrBursts::14             1043                       # Per bank write bursts
system.mem_ctrls.perBankWrBursts::15              966                       # Per bank write bursts
system.mem_ctrls.numRdRetry                         0                       # Number of times read queue was full causing retry
system.mem_ctrls.numWrRetry                         0                       # Number of times write queue was full causing retry
system.mem_ctrls.totGap                    1192961000                       # Total gap between requests
system.mem_ctrls.readPktSize::0                     0                       # Read request sizes (log2)
system.mem_ctrls.readPktSize::1                     0                       # Read request sizes (log2)
system.mem_ctrls.readPktSize::2                     0                       # Read request sizes (log2)
system.mem_ctrls.readPktSize::3                     0                       # Read request sizes (log2)
system.mem_ctrls.readPktSize::4                     0                       # Read request sizes (log2)
system.mem_ctrls.readPktSize::5                     0                       # Read request sizes (log2)
system.mem_ctrls.readPktSize::6                 24675                       # Read request sizes (log2)
system.mem_ctrls.writePktSize::0                    0                       # Write request sizes (log2)
system.mem_ctrls.writePktSize::1                    0                       # Write request sizes (log2)
system.mem_ctrls.writePktSize::2                    0                       # Write request sizes (log2)
system.mem_ctrls.writePktSize::3                    0                       # Write request sizes (log2)
system.mem_ctrls.writePktSize::4                    0                       # Write request sizes (log2)
system.mem_ctrls.writePktSize::5                    0                       # Write request sizes (log2)
system.mem_ctrls.writePktSize::6                10434                       # Write request sizes (log2)
system.mem_ctrls.rdQLenPdf::0                   11437                       # What read queue length does an incoming req see
system.mem_ctrls.rdQLenPdf::1                    6704                       # What read queue length does an incoming req see
system.mem_ctrls.rdQLenPdf::2                    3845                       # What read queue length does an incoming req see
system.mem_ctrls.rdQLenPdf::3                    2184                       # What read queue length does an incoming req see
system.mem_ctrls.rdQLenPdf::4                     277                       # What read queue length does an incoming req see
system.mem_ctrls.rdQLenPdf::5                      99                       # What read queue length does an incoming req see
system.mem_ctrls.rdQLenPdf::6                      40                       # What read queue length does an incoming req see
system.mem_ctrls.rdQLenPdf::7                      20                       # What read queue length does an incoming req see
system.mem_ctrls.rdQLenPdf::8                       2                       # What read queue length does an incoming req see
system.mem_ctrls.rdQLenPdf::9                       1                       # What read queue length does an incoming req see
system.mem_ctrls.rdQLenPdf::10                      1                       # What read queue length does an incoming req see
system.mem_ctrls.rdQLenPdf::11                      2                       # What read queue length does an incoming req see
system.mem_ctrls.rdQLenPdf::12                      0                       # What read queue length does an incoming req see
system.mem_ctrls.rdQLenPdf::13                      0                       # What read queue length does an incoming req see
system.mem_ctrls.rdQLenPdf::14                      0                       # What read queue length does an incoming req see
system.mem_ctrls.rdQLenPdf::15                      0                       # What read queue length does an incoming req see
system.mem_ctrls.rdQLenPdf::16                      0                       # What read queue length does an incoming req see
system.mem_ctrls.rdQLenPdf::17                      0                       # What read queue length does an incoming req see
system.mem_ctrls.rdQLenPdf::18                      0                       # What read queue length does an incoming req see
system.mem_ctrls.rdQLenPdf::19                      0                       # What read queue length does an incoming req see
system.mem_ctrls.rdQLenPdf::20                      0                       # What read queue length does an incoming req see
system.mem_ctrls.rdQLenPdf::21                      0                       # What read queue length does an incoming req see
system.mem_ctrls.rdQLenPdf::22                      0                       # What read queue length does an incoming req see
system.mem_ctrls.rdQLenPdf::23                      0                       # What read queue length does an incoming req see
system.mem_ctrls.rdQLenPdf::24                      0                       # What read queue length does an incoming req see
system.mem_ctrls.rdQLenPdf::25                      0                       # What read queue length does an incoming req see
system.mem_ctrls.rdQLenPdf::26                      0                       # What read queue length does an incoming req see
system.mem_ctrls.rdQLenPdf::27                      0                       # What read queue length does an incoming req see
system.mem_ctrls.rdQLenPdf::28                      0                       # What read queue length does an incoming req see
system.mem_ctrls.rdQLenPdf::29                      0                       # What read queue length does an incoming req see
system.mem_ctrls.rdQLenPdf::30                      0                       # What read queue length does an incoming req see
system.mem_ctrls.rdQLenPdf::31                      0                       # What read queue length does an incoming req see
system.mem_ctrls.wrQLenPdf::0                       1                       # What write queue length does an incoming req see
system.mem_ctrls.wrQLenPdf::1                       1                       # What write queue length does an incoming req see
system.mem_ctrls.wrQLenPdf::2                       1                       # What write queue length does an incoming req see
system.mem_ctrls.wrQLenPdf::3                       1                       # What write queue length does an incoming req see
system.mem_ctrls.wrQLenPdf::4                       1                       # What write queue length does an incoming req see
system.mem_ctrls.wrQLenPdf::5                       1                       # What write queue length does an incoming req see
system.mem_ctrls.wrQLenPdf::6                       1                       # What write queue length does an incoming req see
system.mem_ctrls.wrQLenPdf::7                       1                       # What write queue length does an incoming req see
system.mem_ctrls.wrQLenPdf::8                       1                       # What write queue length does an incoming req see
system.mem_ctrls.wrQLenPdf::9                       1                       # What write queue length does an incoming req see
system.mem_ctrls.wrQLenPdf::10                      1                       # What write queue length does an incoming req see
system.mem_ctrls.wrQLenPdf::11                      1                       # What write queue length does an incoming req see
system.mem_ctrls.wrQLenPdf::12                      1                       # What write queue length does an incoming req see
system.mem_ctrls.wrQLenPdf::13                      1                       # What write queue length does an incoming req see
system.mem_ctrls.wrQLenPdf::14                      1                       # What write queue length does an incoming req see
system.mem_ctrls.wrQLenPdf::15                     35                       # What write queue length does an incoming req see
system.mem_ctrls.wrQLenPdf::16                     43                       # What write queue length does an incoming req see
system.mem_ctrls.wrQLenPdf::17                    299                       # What write queue length does an incoming req see
system.mem_ctrls.wrQLenPdf::18                    458                       # What write queue length does an incoming req see
system.mem_ctrls.wrQLenPdf::19                    565                       # What write queue length does an incoming req see
system.mem_ctrls.wrQLenPdf::20                    636                       # What write queue length does an incoming req see
system.mem_ctrls.wrQLenPdf::21                    660                       # What write queue length does an incoming req see
system.mem_ctrls.wrQLenPdf::22                    673                       # What write queue length does an incoming req see
system.mem_ctrls.wrQLenPdf::23                    679                       # What write queue length does an incoming req see
system.mem_ctrls.wrQLenPdf::24                    685                       # What write queue length does an incoming req see
system.mem_ctrls.wrQLenPdf::25                    699                       # What write queue length does an incoming req see
system.mem_ctrls.wrQLenPdf::26                    798                       # What write queue length does an incoming req see
system.mem_ctrls.wrQLenPdf::27                    704                       # What write queue length does an incoming req see
system.mem_ctrls.wrQLenPdf::28                    703                       # What write queue length does an incoming req see
system.mem_ctrls.wrQLenPdf::29                    750                       # What write queue length does an incoming req see
system.mem_ctrls.wrQLenPdf::30                    681                       # What write queue length does an incoming req see
system.mem_ctrls.wrQLenPdf::31                    682                       # What write queue length does an incoming req see
system.mem_ctrls.wrQLenPdf::32                    655                       # What write queue length does an incoming req see
system.mem_ctrls.wrQLenPdf::33                      7                       # What write queue length does an incoming req see
system.mem_ctrls.wrQLenPdf::34                      3                       # What write queue length does an incoming req see
system.mem_ctrls.wrQLenPdf::35                      3                       # What write queue length does an incoming req see
system.mem_ctrls.wrQLenPdf::36                      1                       # What write queue length does an incoming req see
system.mem_ctrls.wrQLenPdf::37                      0                       # What write queue length does an incoming req see
system.mem_ctrls.wrQLenPdf::38                      0                       # What write queue length does an incoming req see
system.mem_ctrls.wrQLenPdf::39                      0                       # What write queue length does an incoming req see
system.mem_ctrls.wrQLenPdf::40                      0                       # What write queue length does an incoming req see
system.mem_ctrls.wrQLenPdf::41                      0                       # What write queue length does an incoming req see
system.mem_ctrls.wrQLenPdf::42                      0                       # What write queue length does an incoming req see
system.mem_ctrls.wrQLenPdf::43                      0                       # What write queue length does an incoming req see
system.mem_ctrls.wrQLenPdf::44                      0                       # What write queue length does an incoming req see
system.mem_ctrls.wrQLenPdf::45                      0                       # What write queue length does an incoming req see
system.mem_ctrls.wrQLenPdf::46                      0                       # What write queue length does an incoming req see
system.mem_ctrls.wrQLenPdf::47                      0                       # What write queue length does an incoming req see
system.mem_ctrls.wrQLenPdf::48                      0                       # What write queue length does an incoming req see
system.mem_ctrls.wrQLenPdf::49                      0                       # What write queue length does an incoming req see
system.mem_ctrls.wrQLenPdf::50                      0                       # What write queue length does an incoming req see
system.mem_ctrls.wrQLenPdf::51                      0                       # What write queue length does an incoming req see
system.mem_ctrls.wrQLenPdf::52                      0                       # What write queue length does an incoming req see
system.mem_ctrls.wrQLenPdf::53                      0                       # What write queue length does an incoming req see
system.mem_ctrls.wrQLenPdf::54                      0                       # What write queue length does an incoming req see
system.mem_ctrls.wrQLenPdf::55                      0                       # What write queue length does an incoming req see
system.mem_ctrls.wrQLenPdf::56                      0                       # What write queue length does an incoming req see
system.mem_ctrls.wrQLenPdf::57                      0                       # What write queue length does an incoming req see
system.mem_ctrls.wrQLenPdf::58                      0                       # What write queue length does an incoming req see
system.mem_ctrls.wrQLenPdf::59                      0                       # What write queue length does an incoming req see
system.mem_ctrls.wrQLenPdf::60                      0                       # What write queue length does an incoming req see
system.mem_ctrls.wrQLenPdf::61                      0                       # What write queue length does an incoming req see
system.mem_ctrls.wrQLenPdf::62                      0                       # What write queue length does an incoming req see
system.mem_ctrls.wrQLenPdf::63                      0                       # What write queue length does an incoming req see
system.mem_ctrls.bytesPerActivate::samples         9199                       # Bytes accessed per row activation
system.mem_ctrls.bytesPerActivate::mean    243.414284                       # Bytes accessed per row activation
system.mem_ctrls.bytesPerActivate::gmean   143.057112                       # Bytes accessed per row activation
system.mem_ctrls.bytesPerActivate::stdev   293.666660                       # Bytes accessed per row activation
system.mem_ctrls.bytesPerActivate::0-127         4393     47.76%     47.76% # Bytes accessed per row activation
system.mem_ctrls.bytesPerActivate::128-255         2209     24.01%     71.77% # Bytes accessed per row activation
system.mem_ctrls.bytesPerActivate::256-383          760      8.26%     80.03% # Bytes accessed per row activation
system.mem_ctrls.bytesPerActivate::384-511          377      4.10%     84.13% # Bytes accessed per row activation
system.mem_ctrls.bytesPerActivate::512-639          270      2.94%     87.06% # Bytes accessed per row activation
system.mem_ctrls.bytesPerActivate::640-767          178      1.93%     89.00% # Bytes accessed per row activation
system.mem_ctrls.bytesPerActivate::768-895          136      1.48%     90.48% # Bytes accessed per row activation
system.mem_ctrls.bytesPerActivate::896-1023          109      1.18%     91.66% # Bytes accessed per row activation
system.mem_ctrls.bytesPerActivate::1024-1151          767      8.34%    100.00% # Bytes accessed per row activation
system.mem_ctrls.bytesPerActivate::total         9199                       # Bytes accessed per row activation
system.mem_ctrls.rdPerTurnAround::samples          645                       # Reads before turning the bus around for writes
system.mem_ctrls.rdPerTurnAround::mean      38.156589                       # Reads before turning the bus around for writes
system.mem_ctrls.rdPerTurnAround::gmean     31.645788                       # Reads before turning the bus around for writes
system.mem_ctrls.rdPerTurnAround::stdev     25.957777                       # Reads before turning the bus around for writes
system.mem_ctrls.rdPerTurnAround::8-15             39      6.05%      6.05% # Reads before turning the bus around for writes
system.mem_ctrls.rdPerTurnAround::16-23           188     29.15%     35.19% # Reads before turning the bus around for writes
system.mem_ctrls.rdPerTurnAround::24-31            99     15.35%     50.54% # Reads before turning the bus around for writes
system.mem_ctrls.rdPerTurnAround::32-39            77     11.94%     62.48% # Reads before turning the bus around for writes
system.mem_ctrls.rdPerTurnAround::40-47            75     11.63%     74.11% # Reads before turning the bus around for writes
system.mem_ctrls.rdPerTurnAround::48-55            44      6.82%     80.93% # Reads before turning the bus around for writes
system.mem_ctrls.rdPerTurnAround::56-63            38      5.89%     86.82% # Reads before turning the bus around for writes
system.mem_ctrls.rdPerTurnAround::64-71            22      3.41%     90.23% # Reads before turning the bus around for writes
system.mem_ctrls.rdPerTurnAround::72-79            16      2.48%     92.71% # Reads before turning the bus around for writes
system.mem_ctrls.rdPerTurnAround::80-87            12      1.86%     94.57% # Reads before turning the bus around for writes
system.mem_ctrls.rdPerTurnAround::88-95            11      1.71%     96.28% # Reads before turning the bus around for writes
system.mem_ctrls.rdPerTurnAround::96-103            4      0.62%     96.90% # Reads before turning the bus around for writes
system.mem_ctrls.rdPerTurnAround::104-111            6      0.93%     97.83% # Reads before turning the bus around for writes
system.mem_ctrls.rdPerTurnAround::112-119            3      0.47%     98.29% # Reads before turning the bus around for writes
system.mem_ctrls.rdPerTurnAround::120-127            1      0.16%     98.45% # Reads before turning the bus around for writes
system.mem_ctrls.rdPerTurnAround::128-135            3      0.47%     98.91% # Reads before turning the bus around for writes
system.mem_ctrls.rdPerTurnAround::136-143            4      0.62%     99.53% # Reads before turning the bus around for writes
system.mem_ctrls.rdPerTurnAround::144-151            2      0.31%     99.84% # Reads before turning the bus around for writes
system.mem_ctrls.rdPerTurnAround::216-223            1      0.16%    100.00% # Reads before turning the bus around for writes
system.mem_ctrls.rdPerTurnAround::total           645                       # Reads before turning the bus around for writes
system.mem_ctrls.wrPerTurnAround::samples          645                       # Writes before turning the bus around for reads
system.mem_ctrls.wrPerTurnAround::mean      16.150388                       # Writes before turning the bus around for reads
system.mem_ctrls.wrPerTurnAround::gmean     16.141517                       # Writes before turning the bus around for reads
system.mem_ctrls.wrPerTurnAround::stdev      0.557852                       # Writes before turning the bus around for reads
system.mem_ctrls.wrPerTurnAround::16              597     92.56%     92.56% # Writes before turning the bus around for reads
system.mem_ctrls.wrPerTurnAround::17                9      1.40%     93.95% # Writes before turning the bus around for reads
system.mem_ctrls.wrPerTurnAround::18               29      4.50%     98.45% # Writes before turning the bus around for reads
system.mem_ctrls.wrPerTurnAround::19               10      1.55%    100.00% # Writes before turning the bus around for reads
system.mem_ctrls.wrPerTurnAround::total           645                       # Writes before turning the bus around for reads
system.mem_ctrls.totQLat                    498819500                       # Total ticks spent queuing
system.mem_ctrls.totMemAccLat               960294500                       # Total ticks spent from burst creation until serviced by the DRAM
system.mem_ctrls.totBusLat                  123060000                       # Total ticks spent in databus transfers
system.mem_ctrls.avgQLat                     20267.33                       # Average queueing delay per DRAM burst
system.mem_ctrls.avgBusLat                    5000.00                       # Average bus latency per DRAM burst
system.mem_ctrls.avgMemAccLat                39017.33                       # Average memory access latency per DRAM burst
system.mem_ctrls.avgRdBW                      1320.19                       # Average DRAM read bandwidth in MiByte/s
system.mem_ctrls.avgWrBW                       558.77                       # Average achieved write bandwidth in MiByte/s
system.mem_ctrls.avgRdBWSys                   1323.57                       # Average system read bandwidth in MiByte/s
system.mem_ctrls.avgWrBWSys                    559.68                       # Average system write bandwidth in MiByte/s
system.mem_ctrls.peakBW                      12800.00                       # Theoretical peak bandwidth in MiByte/s
system.mem_ctrls.busUtil                        14.68                       # Data bus utilization in percentage
system.mem_ctrls.busUtilRead                    10.31                       # Data bus utilization in percentage for reads
system.mem_ctrls.busUtilWrite                    4.37                       # Data bus utilization in percentage for writes
system.mem_ctrls.avgRdQLen                       1.92                       # Average read queue length when enqueuing
system.mem_ctrls.avgWrQLen                      25.83                       # Average write queue length when enqueuing
system.mem_ctrls.readRowHits                    18368                       # Number of row buffer hits during reads
system.mem_ctrls.writeRowHits                    7452                       # Number of row buffer hits during writes
system.mem_ctrls.readRowHitRate                 74.63                       # Row buffer hit rate for reads
system.mem_ctrls.writeRowHitRate                71.42                       # Row buffer hit rate for writes
system.mem_ctrls.avgGap                      33978.78                       # Average gap between requests
system.mem_ctrls.pageHitRate                    73.67                       # Row buffer hit rate, read and write combined
system.mem_ctrls_0.actEnergy                 27594000                       # Energy for activate commands per rank (pJ)
system.mem_ctrls_0.preEnergy                 15056250                       # Energy for precharge commands per rank (pJ)
system.mem_ctrls_0.readEnergy                83818800                       # Energy for read commands per rank (pJ)
system.mem_ctrls_0.writeEnergy               22330080                       # Energy for write commands per rank (pJ)
system.mem_ctrls_0.refreshEnergy             77809680                       # Energy for refresh commands per rank (pJ)
system.mem_ctrls_0.actBackEnergy            791010945                       # Energy for active background per rank (pJ)
system.mem_ctrls_0.preBackEnergy             21064500                       # Energy for precharge background per rank (pJ)
system.mem_ctrls_0.totalEnergy             1038684255                       # Total energy per rank (pJ)
system.mem_ctrls_0.averagePower            871.703921                       # Core power per rank (mW)
system.mem_ctrls_0.memoryStateTime::IDLE     29923500                       # Time in different power states
system.mem_ctrls_0.memoryStateTime::REF      39780000                       # Time in different power states
system.mem_ctrls_0.memoryStateTime::PRE_PDN            0                       # Time in different power states
system.mem_ctrls_0.memoryStateTime::ACT    1121866500                       # Time in different power states
system.mem_ctrls_0.memoryStateTime::ACT_PDN            0                       # Time in different power states
system.mem_ctrls_1.actEnergy                 41942880                       # Energy for activate commands per rank (pJ)
system.mem_ctrls_1.preEnergy                 22885500                       # Energy for precharge commands per rank (pJ)
system.mem_ctrls_1.readEnergy               107944200                       # Energy for read commands per rank (pJ)
system.mem_ctrls_1.writeEnergy               45068400                       # Energy for write commands per rank (pJ)
system.mem_ctrls_1.refreshEnergy             77809680                       # Energy for refresh commands per rank (pJ)
system.mem_ctrls_1.actBackEnergy            799450650                       # Energy for active background per rank (pJ)
system.mem_ctrls_1.preBackEnergy             13661250                       # Energy for precharge background per rank (pJ)
system.mem_ctrls_1.totalEnergy             1108762560                       # Total energy per rank (pJ)
system.mem_ctrls_1.averagePower            930.516339                       # Core power per rank (mW)
system.mem_ctrls_1.memoryStateTime::IDLE     17858500                       # Time in different power states
system.mem_ctrls_1.memoryStateTime::REF      39780000                       # Time in different power states
system.mem_ctrls_1.memoryStateTime::PRE_PDN            0                       # Time in different power states
system.mem_ctrls_1.memoryStateTime::ACT    1133931500                       # Time in different power states
system.mem_ctrls_1.memoryStateTime::ACT_PDN            0                       # Time in different power states
system.cpu_voltage_domain.voltage                   1                       # Voltage in Volts
system.cpu_clk_domain.clock                       500                       # Clock period in ticks
system.cpu0.dtb.fetch_hits                          0                       # ITB hits
system.cpu0.dtb.fetch_misses                        0                       # ITB misses
system.cpu0.dtb.fetch_acv                           0                       # ITB acv
system.cpu0.dtb.fetch_accesses                      0                       # ITB accesses
system.cpu0.dtb.read_hits                           0                       # DTB read hits
system.cpu0.dtb.read_misses                         0                       # DTB read misses
system.cpu0.dtb.read_acv                            0                       # DTB read access violations
system.cpu0.dtb.read_accesses                       0                       # DTB read accesses
system.cpu0.dtb.write_hits                          0                       # DTB write hits
system.cpu0.dtb.write_misses                        0                       # DTB write misses
system.cpu0.dtb.write_acv                           0                       # DTB write access violations
system.cpu0.dtb.write_accesses                      0                       # DTB write accesses
system.cpu0.dtb.data_hits                           0                       # DTB hits
system.cpu0.dtb.data_misses                         0                       # DTB misses
system.cpu0.dtb.data_acv                            0                       # DTB access violations
system.cpu0.dtb.data_accesses                       0                       # DTB accesses
system.cpu0.itb.fetch_hits                          0                       # ITB hits
system.cpu0.itb.fetch_misses                        0                       # ITB misses
system.cpu0.itb.fetch_acv                           0                       # ITB acv
system.cpu0.itb.fetch_accesses                      0                       # ITB accesses
system.cpu0.itb.read_hits                           0                       # DTB read hits
system.cpu0.itb.read_misses                         0                       # DTB read misses
system.cpu0.itb.read_acv                            0                       # DTB read access violations
system.cpu0.itb.read_accesses                       0                       # DTB read accesses
system.cpu0.itb.write_hits                          0                       # DTB write hits
system.cpu0.itb.write_misses                        0                       # DTB write misses
system.cpu0.itb.write_acv                           0                       # DTB write access violations
system.cpu0.itb.write_accesses                      0                       # DTB write accesses
system.cpu0.itb.data_hits                           0                       # DTB hits
system.cpu0.itb.data_misses                         0                       # DTB misses
system.cpu0.itb.data_acv                            0                       # DTB access violations
system.cpu0.itb.data_accesses                       0                       # DTB accesses
system.cpu0.numCycles                               0                       # number of cpu cycles simulated
system.cpu0.numWorkItemsStarted                     0                       # number of work items this cpu started
system.cpu0.numWorkItemsCompleted                   0                       # number of work items this cpu completed
system.cpu0.committedInsts                          0                       # Number of instructions committed
system.cpu0.committedOps                            0                       # Number of ops (including micro ops) committed
system.cpu0.num_int_alu_accesses                    0                       # Number of integer alu accesses
system.cpu0.num_fp_alu_accesses                     0                       # Number of float alu accesses
system.cpu0.num_func_calls                          0                       # number of times a function call or return occured
system.cpu0.num_conditional_control_insts            0                       # number of instructions that are conditional controls
system.cpu0.num_int_insts                           0                       # number of integer instructions
system.cpu0.num_fp_insts                            0                       # number of float instructions
system.cpu0.num_int_register_reads                  0                       # number of times the integer registers were read
system.cpu0.num_int_register_writes                 0                       # number of times the integer registers were written
system.cpu0.num_fp_register_reads                   0                       # number of times the floating registers were read
system.cpu0.num_fp_register_writes                  0                       # number of times the floating registers were written
system.cpu0.num_mem_refs                            0                       # number of memory refs
system.cpu0.num_load_insts                          0                       # Number of load instructions
system.cpu0.num_store_insts                         0                       # Number of store instructions
system.cpu0.num_idle_cycles                         0                       # Number of idle cycles
system.cpu0.num_busy_cycles                         0                       # Number of busy cycles
system.cpu0.not_idle_fraction                       1                       # Percentage of non-idle cycles
system.cpu0.idle_fraction                           0                       # Percentage of idle cycles
system.cpu0.op_class::No_OpClass                    0                       # Class of executed instruction
system.cpu0.op_class::IntAlu                        0                       # Class of executed instruction
system.cpu0.op_class::IntMult                       0                       # Class of executed instruction
system.cpu0.op_class::IntDiv                        0                       # Class of executed instruction
system.cpu0.op_class::FloatAdd                      0                       # Class of executed instruction
system.cpu0.op_class::FloatCmp                      0                       # Class of executed instruction
system.cpu0.op_class::FloatCvt                      0                       # Class of executed instruction
system.cpu0.op_class::FloatMult                     0                       # Class of executed instruction
system.cpu0.op_class::FloatDiv                      0                       # Class of executed instruction
system.cpu0.op_class::FloatSqrt                     0                       # Class of executed instruction
system.cpu0.op_class::SimdAdd                       0                       # Class of executed instruction
system.cpu0.op_class::SimdAddAcc                    0                       # Class of executed instruction
system.cpu0.op_class::SimdAlu                       0                       # Class of executed instruction
system.cpu0.op_class::SimdCmp                       0                       # Class of executed instruction
system.cpu0.op_class::SimdCvt                       0                       # Class of executed instruction
system.cpu0.op_class::SimdMisc                      0                       # Class of executed instruction
system.cpu0.op_class::SimdMult                      0                       # Class of executed instruction
system.cpu0.op_class::SimdMultAcc                   0                       # Class of executed instruction
system.cpu0.op_class::SimdShift                     0                       # Class of executed instruction
system.cpu0.op_class::SimdShiftAcc                  0                       # Class of executed instruction
system.cpu0.op_class::SimdSqrt                      0                       # Class of executed instruction
system.cpu0.op_class::SimdFloatAdd                  0                       # Class of executed instruction
system.cpu0.op_class::SimdFloatAlu                  0                       # Class of executed instruction
system.cpu0.op_class::SimdFloatCmp                  0                       # Class of executed instruction
system.cpu0.op_class::SimdFloatCvt                  0                       # Class of executed instruction
system.cpu0.op_class::SimdFloatDiv                  0                       # Class of executed instruction
system.cpu0.op_class::SimdFloatMisc                 0                       # Class of executed instruction
system.cpu0.op_class::SimdFloatMult                 0                       # Class of executed instruction
system.cpu0.op_class::SimdFloatMultAcc              0                       # Class of executed instruction
system.cpu0.op_class::SimdFloatSqrt                 0                       # Class of executed instruction
system.cpu0.op_class::MemRead                       0                       # Class of executed instruction
system.cpu0.op_class::MemWrite                      0                       # Class of executed instruction
system.cpu0.op_class::IprAccess                     0                       # Class of executed instruction
system.cpu0.op_class::InstPrefetch                  0                       # Class of executed instruction
system.cpu0.op_class::total                         0                       # Class of executed instruction
system.cpu0.kern.inst.arm                           0                       # number of arm instructions executed
system.cpu0.kern.inst.quiesce                       3                       # number of quiesce instructions executed
system.cpu0.kern.inst.hwrei                       597                       # number of hwrei instructions executed
system.cpu0.kern.ipl_count::0                     168     46.28%     46.28% # number of times we switched to this ipl
system.cpu0.kern.ipl_count::22                      1      0.28%     46.56% # number of times we switched to this ipl
system.cpu0.kern.ipl_count::30                      1      0.28%     46.83% # number of times we switched to this ipl
system.cpu0.kern.ipl_count::31                    193     53.17%    100.00% # number of times we switched to this ipl
system.cpu0.kern.ipl_count::total                 363                       # number of times we switched to this ipl
system.cpu0.kern.ipl_good::0                      168     49.85%     49.85% # number of times we switched to this ipl from a different ipl
system.cpu0.kern.ipl_good::22                       1      0.30%     50.15% # number of times we switched to this ipl from a different ipl
system.cpu0.kern.ipl_good::30                       1      0.30%     50.45% # number of times we switched to this ipl from a different ipl
system.cpu0.kern.ipl_good::31                     167     49.55%    100.00% # number of times we switched to this ipl from a different ipl
system.cpu0.kern.ipl_good::total                  337                       # number of times we switched to this ipl from a different ipl
system.cpu0.kern.ipl_ticks::0               495353000     88.38%     88.38% # number of cycles we spent at this ipl
system.cpu0.kern.ipl_ticks::22                1007500      0.18%     88.56% # number of cycles we spent at this ipl
system.cpu0.kern.ipl_ticks::30                1621000      0.29%     88.85% # number of cycles we spent at this ipl
system.cpu0.kern.ipl_ticks::31               62492500     11.15%    100.00% # number of cycles we spent at this ipl
system.cpu0.kern.ipl_ticks::total           560474000                       # number of cycles we spent at this ipl
system.cpu0.kern.ipl_used::0                        1                       # fraction of swpipl calls that actually changed the ipl
system.cpu0.kern.ipl_used::22                       1                       # fraction of swpipl calls that actually changed the ipl
system.cpu0.kern.ipl_used::30                       1                       # fraction of swpipl calls that actually changed the ipl
system.cpu0.kern.ipl_used::31                0.865285                       # fraction of swpipl calls that actually changed the ipl
system.cpu0.kern.ipl_used::total             0.928375                       # fraction of swpipl calls that actually changed the ipl
system.cpu0.kern.syscall::2                         1     33.33%     33.33% # number of syscalls executed
system.cpu0.kern.syscall::3                         1     33.33%     66.67% # number of syscalls executed
system.cpu0.kern.syscall::19                        1     33.33%    100.00% # number of syscalls executed
system.cpu0.kern.syscall::total                     3                       # number of syscalls executed
system.cpu0.kern.callpal::wripir                    1      0.26%      0.26% # number of callpals executed
system.cpu0.kern.callpal::swpctx                   12      3.08%      3.34% # number of callpals executed
system.cpu0.kern.callpal::tbi                       2      0.51%      3.86% # number of callpals executed
system.cpu0.kern.callpal::swpipl                  342     87.92%     91.77% # number of callpals executed
system.cpu0.kern.callpal::rdps                      2      0.51%     92.29% # number of callpals executed
system.cpu0.kern.callpal::rdusp                     1      0.26%     92.54% # number of callpals executed
system.cpu0.kern.callpal::rti                      19      4.88%     97.43% # number of callpals executed
system.cpu0.kern.callpal::callsys                   9      2.31%     99.74% # number of callpals executed
system.cpu0.kern.callpal::imb                       1      0.26%    100.00% # number of callpals executed
system.cpu0.kern.callpal::total                   389                       # number of callpals executed
system.cpu0.kern.mode_switch::kernel               32                       # number of protection mode switches
system.cpu0.kern.mode_switch::user                 17                       # number of protection mode switches
system.cpu0.kern.mode_switch::idle                  0                       # number of protection mode switches
system.cpu0.kern.mode_good::kernel                 18                      
system.cpu0.kern.mode_good::user                   17                      
system.cpu0.kern.mode_good::idle                    0                      
system.cpu0.kern.mode_switch_good::kernel     0.562500                       # fraction of useful protection mode switches
system.cpu0.kern.mode_switch_good::user             1                       # fraction of useful protection mode switches
system.cpu0.kern.mode_switch_good::idle           nan                       # fraction of useful protection mode switches
system.cpu0.kern.mode_switch_good::total     0.714286                       # fraction of useful protection mode switches
system.cpu0.kern.mode_ticks::kernel         241189000     73.68%     73.68% # number of ticks spent at the given mode
system.cpu0.kern.mode_ticks::user            86144500     26.32%    100.00% # number of ticks spent at the given mode
system.cpu0.kern.mode_ticks::idle                   0      0.00%    100.00% # number of ticks spent at the given mode
system.cpu0.kern.swap_context                      12                       # number of times the context was actually changed
system.cpu0.dcache.tags.replacements             4855                       # number of replacements
system.cpu0.dcache.tags.tagsinuse          504.876276                       # Cycle average of tags in use
system.cpu0.dcache.tags.total_refs              55841                       # Total number of references to valid blocks.
system.cpu0.dcache.tags.sampled_refs             4855                       # Sample count of references to valid blocks.
system.cpu0.dcache.tags.avg_refs            11.501751                       # Average number of references to valid blocks.
system.cpu0.dcache.tags.warmup_cycle                0                       # Cycle when the warmup percentage was hit.
system.cpu0.dcache.tags.occ_blocks::cpu0.data    23.913869                       # Average occupied blocks per requestor
system.cpu0.dcache.tags.occ_blocks::switch_cpus0.data   480.962407                       # Average occupied blocks per requestor
system.cpu0.dcache.tags.occ_percent::cpu0.data     0.046707                       # Average percentage of cache occupancy
system.cpu0.dcache.tags.occ_percent::switch_cpus0.data     0.939380                       # Average percentage of cache occupancy
system.cpu0.dcache.tags.occ_percent::total     0.986086                       # Average percentage of cache occupancy
system.cpu0.dcache.tags.occ_task_id_blocks::1024          500                       # Occupied blocks per task id
system.cpu0.dcache.tags.age_task_id_blocks_1024::2          491                       # Occupied blocks per task id
system.cpu0.dcache.tags.age_task_id_blocks_1024::3            9                       # Occupied blocks per task id
system.cpu0.dcache.tags.occ_task_id_percent::1024     0.976562                       # Percentage of cache occupancy per task id
system.cpu0.dcache.tags.tag_accesses           289555                       # Number of tag accesses
system.cpu0.dcache.tags.data_accesses          289555                       # Number of data accesses
system.cpu0.dcache.ReadReq_hits::switch_cpus0.data        33047                       # number of ReadReq hits
system.cpu0.dcache.ReadReq_hits::total          33047                       # number of ReadReq hits
system.cpu0.dcache.WriteReq_hits::switch_cpus0.data        13572                       # number of WriteReq hits
system.cpu0.dcache.WriteReq_hits::total         13572                       # number of WriteReq hits
system.cpu0.dcache.LoadLockedReq_hits::switch_cpus0.data          539                       # number of LoadLockedReq hits
system.cpu0.dcache.LoadLockedReq_hits::total          539                       # number of LoadLockedReq hits
system.cpu0.dcache.StoreCondReq_hits::switch_cpus0.data          594                       # number of StoreCondReq hits
system.cpu0.dcache.StoreCondReq_hits::total          594                       # number of StoreCondReq hits
system.cpu0.dcache.demand_hits::switch_cpus0.data        46619                       # number of demand (read+write) hits
system.cpu0.dcache.demand_hits::total           46619                       # number of demand (read+write) hits
system.cpu0.dcache.overall_hits::switch_cpus0.data        46619                       # number of overall hits
system.cpu0.dcache.overall_hits::total          46619                       # number of overall hits
system.cpu0.dcache.ReadReq_misses::switch_cpus0.data         8718                       # number of ReadReq misses
system.cpu0.dcache.ReadReq_misses::total         8718                       # number of ReadReq misses
system.cpu0.dcache.WriteReq_misses::switch_cpus0.data        14510                       # number of WriteReq misses
system.cpu0.dcache.WriteReq_misses::total        14510                       # number of WriteReq misses
system.cpu0.dcache.LoadLockedReq_misses::switch_cpus0.data          158                       # number of LoadLockedReq misses
system.cpu0.dcache.LoadLockedReq_misses::total          158                       # number of LoadLockedReq misses
system.cpu0.dcache.StoreCondReq_misses::switch_cpus0.data           25                       # number of StoreCondReq misses
system.cpu0.dcache.StoreCondReq_misses::total           25                       # number of StoreCondReq misses
system.cpu0.dcache.demand_misses::switch_cpus0.data        23228                       # number of demand (read+write) misses
system.cpu0.dcache.demand_misses::total         23228                       # number of demand (read+write) misses
system.cpu0.dcache.overall_misses::switch_cpus0.data        23228                       # number of overall misses
system.cpu0.dcache.overall_misses::total        23228                       # number of overall misses
system.cpu0.dcache.ReadReq_miss_latency::switch_cpus0.data    520050712                       # number of ReadReq miss cycles
system.cpu0.dcache.ReadReq_miss_latency::total    520050712                       # number of ReadReq miss cycles
system.cpu0.dcache.WriteReq_miss_latency::switch_cpus0.data   1091363932                       # number of WriteReq miss cycles
system.cpu0.dcache.WriteReq_miss_latency::total   1091363932                       # number of WriteReq miss cycles
system.cpu0.dcache.LoadLockedReq_miss_latency::switch_cpus0.data     11059496                       # number of LoadLockedReq miss cycles
system.cpu0.dcache.LoadLockedReq_miss_latency::total     11059496                       # number of LoadLockedReq miss cycles
system.cpu0.dcache.StoreCondReq_miss_latency::switch_cpus0.data       258505                       # number of StoreCondReq miss cycles
system.cpu0.dcache.StoreCondReq_miss_latency::total       258505                       # number of StoreCondReq miss cycles
system.cpu0.dcache.demand_miss_latency::switch_cpus0.data   1611414644                       # number of demand (read+write) miss cycles
system.cpu0.dcache.demand_miss_latency::total   1611414644                       # number of demand (read+write) miss cycles
system.cpu0.dcache.overall_miss_latency::switch_cpus0.data   1611414644                       # number of overall miss cycles
system.cpu0.dcache.overall_miss_latency::total   1611414644                       # number of overall miss cycles
system.cpu0.dcache.ReadReq_accesses::switch_cpus0.data        41765                       # number of ReadReq accesses(hits+misses)
system.cpu0.dcache.ReadReq_accesses::total        41765                       # number of ReadReq accesses(hits+misses)
system.cpu0.dcache.WriteReq_accesses::switch_cpus0.data        28082                       # number of WriteReq accesses(hits+misses)
system.cpu0.dcache.WriteReq_accesses::total        28082                       # number of WriteReq accesses(hits+misses)
system.cpu0.dcache.LoadLockedReq_accesses::switch_cpus0.data          697                       # number of LoadLockedReq accesses(hits+misses)
system.cpu0.dcache.LoadLockedReq_accesses::total          697                       # number of LoadLockedReq accesses(hits+misses)
system.cpu0.dcache.StoreCondReq_accesses::switch_cpus0.data          619                       # number of StoreCondReq accesses(hits+misses)
system.cpu0.dcache.StoreCondReq_accesses::total          619                       # number of StoreCondReq accesses(hits+misses)
system.cpu0.dcache.demand_accesses::switch_cpus0.data        69847                       # number of demand (read+write) accesses
system.cpu0.dcache.demand_accesses::total        69847                       # number of demand (read+write) accesses
system.cpu0.dcache.overall_accesses::switch_cpus0.data        69847                       # number of overall (read+write) accesses
system.cpu0.dcache.overall_accesses::total        69847                       # number of overall (read+write) accesses
system.cpu0.dcache.ReadReq_miss_rate::switch_cpus0.data     0.208739                       # miss rate for ReadReq accesses
system.cpu0.dcache.ReadReq_miss_rate::total     0.208739                       # miss rate for ReadReq accesses
system.cpu0.dcache.WriteReq_miss_rate::switch_cpus0.data     0.516701                       # miss rate for WriteReq accesses
system.cpu0.dcache.WriteReq_miss_rate::total     0.516701                       # miss rate for WriteReq accesses
system.cpu0.dcache.LoadLockedReq_miss_rate::switch_cpus0.data     0.226686                       # miss rate for LoadLockedReq accesses
system.cpu0.dcache.LoadLockedReq_miss_rate::total     0.226686                       # miss rate for LoadLockedReq accesses
system.cpu0.dcache.StoreCondReq_miss_rate::switch_cpus0.data     0.040388                       # miss rate for StoreCondReq accesses
system.cpu0.dcache.StoreCondReq_miss_rate::total     0.040388                       # miss rate for StoreCondReq accesses
system.cpu0.dcache.demand_miss_rate::switch_cpus0.data     0.332555                       # miss rate for demand accesses
system.cpu0.dcache.demand_miss_rate::total     0.332555                       # miss rate for demand accesses
system.cpu0.dcache.overall_miss_rate::switch_cpus0.data     0.332555                       # miss rate for overall accesses
system.cpu0.dcache.overall_miss_rate::total     0.332555                       # miss rate for overall accesses
system.cpu0.dcache.ReadReq_avg_miss_latency::switch_cpus0.data 59652.524891                       # average ReadReq miss latency
system.cpu0.dcache.ReadReq_avg_miss_latency::total 59652.524891                       # average ReadReq miss latency
system.cpu0.dcache.WriteReq_avg_miss_latency::switch_cpus0.data 75214.605927                       # average WriteReq miss latency
system.cpu0.dcache.WriteReq_avg_miss_latency::total 75214.605927                       # average WriteReq miss latency
system.cpu0.dcache.LoadLockedReq_avg_miss_latency::switch_cpus0.data 69996.810127                       # average LoadLockedReq miss latency
system.cpu0.dcache.LoadLockedReq_avg_miss_latency::total 69996.810127                       # average LoadLockedReq miss latency
system.cpu0.dcache.StoreCondReq_avg_miss_latency::switch_cpus0.data 10340.200000                       # average StoreCondReq miss latency
system.cpu0.dcache.StoreCondReq_avg_miss_latency::total 10340.200000                       # average StoreCondReq miss latency
system.cpu0.dcache.demand_avg_miss_latency::switch_cpus0.data 69373.800758                       # average overall miss latency
system.cpu0.dcache.demand_avg_miss_latency::total 69373.800758                       # average overall miss latency
system.cpu0.dcache.overall_avg_miss_latency::switch_cpus0.data 69373.800758                       # average overall miss latency
system.cpu0.dcache.overall_avg_miss_latency::total 69373.800758                       # average overall miss latency
system.cpu0.dcache.blocked_cycles::no_mshrs        94149                       # number of cycles access was blocked
system.cpu0.dcache.blocked_cycles::no_targets          130                       # number of cycles access was blocked
system.cpu0.dcache.blocked::no_mshrs             2022                       # number of cycles access was blocked
system.cpu0.dcache.blocked::no_targets              3                       # number of cycles access was blocked
system.cpu0.dcache.avg_blocked_cycles::no_mshrs    46.562315                       # average number of cycles each access was blocked
system.cpu0.dcache.avg_blocked_cycles::no_targets    43.333333                       # average number of cycles each access was blocked
system.cpu0.dcache.fast_writes                      0                       # number of fast writes performed
system.cpu0.dcache.cache_copies                     0                       # number of cache copies performed
system.cpu0.dcache.writebacks::writebacks         2797                       # number of writebacks
system.cpu0.dcache.writebacks::total             2797                       # number of writebacks
system.cpu0.dcache.ReadReq_mshr_hits::switch_cpus0.data         5927                       # number of ReadReq MSHR hits
system.cpu0.dcache.ReadReq_mshr_hits::total         5927                       # number of ReadReq MSHR hits
system.cpu0.dcache.WriteReq_mshr_hits::switch_cpus0.data        12429                       # number of WriteReq MSHR hits
system.cpu0.dcache.WriteReq_mshr_hits::total        12429                       # number of WriteReq MSHR hits
system.cpu0.dcache.LoadLockedReq_mshr_hits::switch_cpus0.data           56                       # number of LoadLockedReq MSHR hits
system.cpu0.dcache.LoadLockedReq_mshr_hits::total           56                       # number of LoadLockedReq MSHR hits
system.cpu0.dcache.demand_mshr_hits::switch_cpus0.data        18356                       # number of demand (read+write) MSHR hits
system.cpu0.dcache.demand_mshr_hits::total        18356                       # number of demand (read+write) MSHR hits
system.cpu0.dcache.overall_mshr_hits::switch_cpus0.data        18356                       # number of overall MSHR hits
system.cpu0.dcache.overall_mshr_hits::total        18356                       # number of overall MSHR hits
system.cpu0.dcache.ReadReq_mshr_misses::switch_cpus0.data         2791                       # number of ReadReq MSHR misses
system.cpu0.dcache.ReadReq_mshr_misses::total         2791                       # number of ReadReq MSHR misses
system.cpu0.dcache.WriteReq_mshr_misses::switch_cpus0.data         2081                       # number of WriteReq MSHR misses
system.cpu0.dcache.WriteReq_mshr_misses::total         2081                       # number of WriteReq MSHR misses
system.cpu0.dcache.LoadLockedReq_mshr_misses::switch_cpus0.data          102                       # number of LoadLockedReq MSHR misses
system.cpu0.dcache.LoadLockedReq_mshr_misses::total          102                       # number of LoadLockedReq MSHR misses
system.cpu0.dcache.StoreCondReq_mshr_misses::switch_cpus0.data           25                       # number of StoreCondReq MSHR misses
system.cpu0.dcache.StoreCondReq_mshr_misses::total           25                       # number of StoreCondReq MSHR misses
system.cpu0.dcache.demand_mshr_misses::switch_cpus0.data         4872                       # number of demand (read+write) MSHR misses
system.cpu0.dcache.demand_mshr_misses::total         4872                       # number of demand (read+write) MSHR misses
system.cpu0.dcache.overall_mshr_misses::switch_cpus0.data         4872                       # number of overall MSHR misses
system.cpu0.dcache.overall_mshr_misses::total         4872                       # number of overall MSHR misses
system.cpu0.dcache.WriteReq_mshr_uncacheable::switch_cpus0.data            3                       # number of WriteReq MSHR uncacheable
system.cpu0.dcache.WriteReq_mshr_uncacheable::total            3                       # number of WriteReq MSHR uncacheable
system.cpu0.dcache.overall_mshr_uncacheable_misses::switch_cpus0.data            3                       # number of overall MSHR uncacheable misses
system.cpu0.dcache.overall_mshr_uncacheable_misses::total            3                       # number of overall MSHR uncacheable misses
system.cpu0.dcache.ReadReq_mshr_miss_latency::switch_cpus0.data    193363522                       # number of ReadReq MSHR miss cycles
system.cpu0.dcache.ReadReq_mshr_miss_latency::total    193363522                       # number of ReadReq MSHR miss cycles
system.cpu0.dcache.WriteReq_mshr_miss_latency::switch_cpus0.data    173816781                       # number of WriteReq MSHR miss cycles
system.cpu0.dcache.WriteReq_mshr_miss_latency::total    173816781                       # number of WriteReq MSHR miss cycles
system.cpu0.dcache.LoadLockedReq_mshr_miss_latency::switch_cpus0.data      7403003                       # number of LoadLockedReq MSHR miss cycles
system.cpu0.dcache.LoadLockedReq_mshr_miss_latency::total      7403003                       # number of LoadLockedReq MSHR miss cycles
system.cpu0.dcache.StoreCondReq_mshr_miss_latency::switch_cpus0.data       220995                       # number of StoreCondReq MSHR miss cycles
system.cpu0.dcache.StoreCondReq_mshr_miss_latency::total       220995                       # number of StoreCondReq MSHR miss cycles
system.cpu0.dcache.demand_mshr_miss_latency::switch_cpus0.data    367180303                       # number of demand (read+write) MSHR miss cycles
system.cpu0.dcache.demand_mshr_miss_latency::total    367180303                       # number of demand (read+write) MSHR miss cycles
system.cpu0.dcache.overall_mshr_miss_latency::switch_cpus0.data    367180303                       # number of overall MSHR miss cycles
system.cpu0.dcache.overall_mshr_miss_latency::total    367180303                       # number of overall MSHR miss cycles
system.cpu0.dcache.WriteReq_mshr_uncacheable_latency::switch_cpus0.data       671000                       # number of WriteReq MSHR uncacheable cycles
system.cpu0.dcache.WriteReq_mshr_uncacheable_latency::total       671000                       # number of WriteReq MSHR uncacheable cycles
system.cpu0.dcache.overall_mshr_uncacheable_latency::switch_cpus0.data       671000                       # number of overall MSHR uncacheable cycles
system.cpu0.dcache.overall_mshr_uncacheable_latency::total       671000                       # number of overall MSHR uncacheable cycles
system.cpu0.dcache.ReadReq_mshr_miss_rate::switch_cpus0.data     0.066826                       # mshr miss rate for ReadReq accesses
system.cpu0.dcache.ReadReq_mshr_miss_rate::total     0.066826                       # mshr miss rate for ReadReq accesses
system.cpu0.dcache.WriteReq_mshr_miss_rate::switch_cpus0.data     0.074104                       # mshr miss rate for WriteReq accesses
system.cpu0.dcache.WriteReq_mshr_miss_rate::total     0.074104                       # mshr miss rate for WriteReq accesses
system.cpu0.dcache.LoadLockedReq_mshr_miss_rate::switch_cpus0.data     0.146341                       # mshr miss rate for LoadLockedReq accesses
system.cpu0.dcache.LoadLockedReq_mshr_miss_rate::total     0.146341                       # mshr miss rate for LoadLockedReq accesses
system.cpu0.dcache.StoreCondReq_mshr_miss_rate::switch_cpus0.data     0.040388                       # mshr miss rate for StoreCondReq accesses
system.cpu0.dcache.StoreCondReq_mshr_miss_rate::total     0.040388                       # mshr miss rate for StoreCondReq accesses
system.cpu0.dcache.demand_mshr_miss_rate::switch_cpus0.data     0.069752                       # mshr miss rate for demand accesses
system.cpu0.dcache.demand_mshr_miss_rate::total     0.069752                       # mshr miss rate for demand accesses
system.cpu0.dcache.overall_mshr_miss_rate::switch_cpus0.data     0.069752                       # mshr miss rate for overall accesses
system.cpu0.dcache.overall_mshr_miss_rate::total     0.069752                       # mshr miss rate for overall accesses
system.cpu0.dcache.ReadReq_avg_mshr_miss_latency::switch_cpus0.data 69281.089932                       # average ReadReq mshr miss latency
system.cpu0.dcache.ReadReq_avg_mshr_miss_latency::total 69281.089932                       # average ReadReq mshr miss latency
system.cpu0.dcache.WriteReq_avg_mshr_miss_latency::switch_cpus0.data 83525.603556                       # average WriteReq mshr miss latency
system.cpu0.dcache.WriteReq_avg_mshr_miss_latency::total 83525.603556                       # average WriteReq mshr miss latency
system.cpu0.dcache.LoadLockedReq_avg_mshr_miss_latency::switch_cpus0.data 72578.460784                       # average LoadLockedReq mshr miss latency
system.cpu0.dcache.LoadLockedReq_avg_mshr_miss_latency::total 72578.460784                       # average LoadLockedReq mshr miss latency
system.cpu0.dcache.StoreCondReq_avg_mshr_miss_latency::switch_cpus0.data  8839.800000                       # average StoreCondReq mshr miss latency
system.cpu0.dcache.StoreCondReq_avg_mshr_miss_latency::total  8839.800000                       # average StoreCondReq mshr miss latency
system.cpu0.dcache.demand_avg_mshr_miss_latency::switch_cpus0.data 75365.415230                       # average overall mshr miss latency
system.cpu0.dcache.demand_avg_mshr_miss_latency::total 75365.415230                       # average overall mshr miss latency
system.cpu0.dcache.overall_avg_mshr_miss_latency::switch_cpus0.data 75365.415230                       # average overall mshr miss latency
system.cpu0.dcache.overall_avg_mshr_miss_latency::total 75365.415230                       # average overall mshr miss latency
system.cpu0.dcache.WriteReq_avg_mshr_uncacheable_latency::switch_cpus0.data 223666.666667                       # average WriteReq mshr uncacheable latency
system.cpu0.dcache.WriteReq_avg_mshr_uncacheable_latency::total 223666.666667                       # average WriteReq mshr uncacheable latency
system.cpu0.dcache.overall_avg_mshr_uncacheable_latency::switch_cpus0.data 223666.666667                       # average overall mshr uncacheable latency
system.cpu0.dcache.overall_avg_mshr_uncacheable_latency::total 223666.666667                       # average overall mshr uncacheable latency
system.cpu0.dcache.no_allocate_misses               0                       # Number of misses that were no-allocate
system.cpu0.icache.tags.replacements             3503                       # number of replacements
system.cpu0.icache.tags.tagsinuse          511.675841                       # Cycle average of tags in use
system.cpu0.icache.tags.total_refs             261029                       # Total number of references to valid blocks.
system.cpu0.icache.tags.sampled_refs             3503                       # Sample count of references to valid blocks.
system.cpu0.icache.tags.avg_refs            74.515844                       # Average number of references to valid blocks.
system.cpu0.icache.tags.warmup_cycle                0                       # Cycle when the warmup percentage was hit.
system.cpu0.icache.tags.occ_blocks::cpu0.inst    19.964575                       # Average occupied blocks per requestor
system.cpu0.icache.tags.occ_blocks::switch_cpus0.inst   491.711266                       # Average occupied blocks per requestor
system.cpu0.icache.tags.occ_percent::cpu0.inst     0.038993                       # Average percentage of cache occupancy
system.cpu0.icache.tags.occ_percent::switch_cpus0.inst     0.960374                       # Average percentage of cache occupancy
system.cpu0.icache.tags.occ_percent::total     0.999367                       # Average percentage of cache occupancy
system.cpu0.icache.tags.occ_task_id_blocks::1024          512                       # Occupied blocks per task id
system.cpu0.icache.tags.age_task_id_blocks_1024::2          463                       # Occupied blocks per task id
system.cpu0.icache.tags.age_task_id_blocks_1024::3           49                       # Occupied blocks per task id
system.cpu0.icache.tags.occ_task_id_percent::1024            1                       # Percentage of cache occupancy per task id
system.cpu0.icache.tags.tag_accesses            86309                       # Number of tag accesses
system.cpu0.icache.tags.data_accesses           86309                       # Number of data accesses
system.cpu0.icache.ReadReq_hits::switch_cpus0.inst        37114                       # number of ReadReq hits
system.cpu0.icache.ReadReq_hits::total          37114                       # number of ReadReq hits
system.cpu0.icache.demand_hits::switch_cpus0.inst        37114                       # number of demand (read+write) hits
system.cpu0.icache.demand_hits::total           37114                       # number of demand (read+write) hits
system.cpu0.icache.overall_hits::switch_cpus0.inst        37114                       # number of overall hits
system.cpu0.icache.overall_hits::total          37114                       # number of overall hits
system.cpu0.icache.ReadReq_misses::switch_cpus0.inst         4286                       # number of ReadReq misses
system.cpu0.icache.ReadReq_misses::total         4286                       # number of ReadReq misses
system.cpu0.icache.demand_misses::switch_cpus0.inst         4286                       # number of demand (read+write) misses
system.cpu0.icache.demand_misses::total          4286                       # number of demand (read+write) misses
system.cpu0.icache.overall_misses::switch_cpus0.inst         4286                       # number of overall misses
system.cpu0.icache.overall_misses::total         4286                       # number of overall misses
system.cpu0.icache.ReadReq_miss_latency::switch_cpus0.inst    311881334                       # number of ReadReq miss cycles
system.cpu0.icache.ReadReq_miss_latency::total    311881334                       # number of ReadReq miss cycles
system.cpu0.icache.demand_miss_latency::switch_cpus0.inst    311881334                       # number of demand (read+write) miss cycles
system.cpu0.icache.demand_miss_latency::total    311881334                       # number of demand (read+write) miss cycles
system.cpu0.icache.overall_miss_latency::switch_cpus0.inst    311881334                       # number of overall miss cycles
system.cpu0.icache.overall_miss_latency::total    311881334                       # number of overall miss cycles
system.cpu0.icache.ReadReq_accesses::switch_cpus0.inst        41400                       # number of ReadReq accesses(hits+misses)
system.cpu0.icache.ReadReq_accesses::total        41400                       # number of ReadReq accesses(hits+misses)
system.cpu0.icache.demand_accesses::switch_cpus0.inst        41400                       # number of demand (read+write) accesses
system.cpu0.icache.demand_accesses::total        41400                       # number of demand (read+write) accesses
[...]
system.switch_cpus3.fp_regfile_reads              154                       # number of floating regfile reads
system.switch_cpus3.fp_regfile_writes             155                       # number of floating regfile writes
system.switch_cpus3.misc_regfile_reads         127901                       # number of misc regfile reads
system.switch_cpus3.misc_regfile_writes         33999                       # number of misc regfile writes
system.tol2bus.trans_dist::ReadReq            5561873                       # Transaction distribution
system.tol2bus.trans_dist::ReadResp           5561867                       # Transaction distribution
system.tol2bus.trans_dist::WriteReq              2785                       # Transaction distribution
system.tol2bus.trans_dist::WriteResp             2785                       # Transaction distribution
system.tol2bus.trans_dist::Writeback          1186835                       # Transaction distribution
system.tol2bus.trans_dist::WriteInvalidateReq         1152                       # Transaction distribution
system.tol2bus.trans_dist::UpgradeReq            2067                       # Transaction distribution
system.tol2bus.trans_dist::SCUpgradeReq           582                       # Transaction distribution
system.tol2bus.trans_dist::UpgradeResp           2649                       # Transaction distribution
system.tol2bus.trans_dist::SCUpgradeFailReq            1                       # Transaction distribution
system.tol2bus.trans_dist::UpgradeFailResp            1                       # Transaction distribution
system.tol2bus.trans_dist::ReadExReq            57294                       # Transaction distribution
system.tol2bus.trans_dist::ReadExResp           57294                       # Transaction distribution
system.tol2bus.trans_dist::BadAddressError            4                       # Transaction distribution
system.tol2bus.pkt_count_system.cpu0.icache.mem_side::system.l2.cpu_side        33510                       # Packet count per connected master and slave (bytes)
system.tol2bus.pkt_count_system.cpu0.dcache.mem_side::system.l2.cpu_side        41110                       # Packet count per connected master and slave (bytes)
system.tol2bus.pkt_count_system.cpu1.icache.mem_side::system.l2.cpu_side        15080                       # Packet count per connected master and slave (bytes)
system.tol2bus.pkt_count_system.cpu1.dcache.mem_side::system.l2.cpu_side         5106                       # Packet count per connected master and slave (bytes)
system.tol2bus.pkt_count_system.cpu2.icache.mem_side::system.l2.cpu_side        37251                       # Packet count per connected master and slave (bytes)
system.tol2bus.pkt_count_system.cpu2.dcache.mem_side::system.l2.cpu_side     12265689                       # Packet count per connected master and slave (bytes)
system.tol2bus.pkt_count_system.cpu3.icache.mem_side::system.l2.cpu_side        19880                       # Packet count per connected master and slave (bytes)
system.tol2bus.pkt_count_system.cpu3.dcache.mem_side::system.l2.cpu_side        11524                       # Packet count per connected master and slave (bytes)
system.tol2bus.pkt_count::total              12429150                       # Packet count per connected master and slave (bytes)
system.tol2bus.pkt_size_system.cpu0.icache.mem_side::system.l2.cpu_side      1072192                       # Cumulative packet size per connected master and slave (bytes)
system.tol2bus.pkt_size_system.cpu0.dcache.mem_side::system.l2.cpu_side      1398787                       # Cumulative packet size per connected master and slave (bytes)
system.tol2bus.pkt_size_system.cpu1.icache.mem_side::system.l2.cpu_side       482560                       # Cumulative packet size per connected master and slave (bytes)
system.tol2bus.pkt_size_system.cpu1.dcache.mem_side::system.l2.cpu_side        50688                       # Cumulative packet size per connected master and slave (bytes)
system.tol2bus.pkt_size_system.cpu2.icache.mem_side::system.l2.cpu_side      1192064                       # Cumulative packet size per connected master and slave (bytes)
system.tol2bus.pkt_size_system.cpu2.dcache.mem_side::system.l2.cpu_side    430049790                       # Cumulative packet size per connected master and slave (bytes)
system.tol2bus.pkt_size_system.cpu3.icache.mem_side::system.l2.cpu_side       636160                       # Cumulative packet size per connected master and slave (bytes)
system.tol2bus.pkt_size_system.cpu3.dcache.mem_side::system.l2.cpu_side       290576                       # Cumulative packet size per connected master and slave (bytes)
system.tol2bus.pkt_size::total              435172817                       # Cumulative packet size per connected master and slave (bytes)
system.tol2bus.snoops                            8039                       # Total snoops (count)
system.tol2bus.snoop_fanout::samples          6812589                       # Request fanout histogram
system.tol2bus.snoop_fanout::mean            7.000170                       # Request fanout histogram
system.tol2bus.snoop_fanout::stdev           0.013020                       # Request fanout histogram
system.tol2bus.snoop_fanout::underflows             0      0.00%      0.00% # Request fanout histogram
system.tol2bus.snoop_fanout::0                      0      0.00%      0.00% # Request fanout histogram
system.tol2bus.snoop_fanout::1                      0      0.00%      0.00% # Request fanout histogram
system.tol2bus.snoop_fanout::2                      0      0.00%      0.00% # Request fanout histogram
system.tol2bus.snoop_fanout::3                      0      0.00%      0.00% # Request fanout histogram
system.tol2bus.snoop_fanout::4                      0      0.00%      0.00% # Request fanout histogram
system.tol2bus.snoop_fanout::5                      0      0.00%      0.00% # Request fanout histogram
system.tol2bus.snoop_fanout::6                      0      0.00%      0.00% # Request fanout histogram
system.tol2bus.snoop_fanout::7                6811434     99.98%     99.98% # Request fanout histogram
system.tol2bus.snoop_fanout::8                   1155      0.02%    100.00% # Request fanout histogram
system.tol2bus.snoop_fanout::overflows              0      0.00%    100.00% # Request fanout histogram
system.tol2bus.snoop_fanout::min_value              7                       # Request fanout histogram
system.tol2bus.snoop_fanout::max_value              8                       # Request fanout histogram
system.tol2bus.snoop_fanout::total            6812589                       # Request fanout histogram
system.tol2bus.reqLayer0.occupancy         4593947993                       # Layer occupancy (ticks)
system.tol2bus.reqLayer0.utilization              0.7                       # Layer utilization (%)
system.tol2bus.respLayer0.occupancy          27312510                       # Layer occupancy (ticks)
system.tol2bus.respLayer0.utilization             0.0                       # Layer utilization (%)
system.tol2bus.respLayer1.occupancy          25209302                       # Layer occupancy (ticks)
system.tol2bus.respLayer1.utilization             0.0                       # Layer utilization (%)
system.tol2bus.respLayer2.occupancy          13033361                       # Layer occupancy (ticks)
system.tol2bus.respLayer2.utilization             0.0                       # Layer utilization (%)
system.tol2bus.respLayer3.occupancy           4065145                       # Layer occupancy (ticks)
system.tol2bus.respLayer3.utilization             0.0                       # Layer utilization (%)
system.tol2bus.respLayer4.occupancy          29967069                       # Layer occupancy (ticks)
system.tol2bus.respLayer4.utilization             0.0                       # Layer utilization (%)
system.tol2bus.respLayer5.occupancy        9138584148                       # Layer occupancy (ticks)
system.tol2bus.respLayer5.utilization             1.4                       # Layer utilization (%)
system.tol2bus.respLayer6.occupancy          16574197                       # Layer occupancy (ticks)
system.tol2bus.respLayer6.utilization             0.0                       # Layer utilization (%)
system.tol2bus.respLayer7.occupancy           8366012                       # Layer occupancy (ticks)
system.tol2bus.respLayer7.utilization             0.0                       # Layer utilization (%)
system.tsunami.ethernet.descDMAReads                0                       # Number of descriptors the device read w/ DMA
system.tsunami.ethernet.descDMAWrites               0                       # Number of descriptors the device wrote w/ DMA
system.tsunami.ethernet.descDmaReadBytes            0                       # number of descriptor bytes read w/ DMA
system.tsunami.ethernet.descDmaWriteBytes            0                       # number of descriptor bytes write w/ DMA
system.tsunami.ethernet.postedSwi                   0                       # number of software interrupts posted to CPU
system.tsunami.ethernet.coalescedSwi              nan                       # average number of Swi's coalesced into each post
system.tsunami.ethernet.totalSwi                    0                       # total number of Swi written to ISR
system.tsunami.ethernet.postedRxIdle                0                       # number of rxIdle interrupts posted to CPU
system.tsunami.ethernet.coalescedRxIdle           nan                       # average number of RxIdle's coalesced into each post
system.tsunami.ethernet.totalRxIdle                 0                       # total number of RxIdle written to ISR
system.tsunami.ethernet.postedRxOk                  0                       # number of RxOk interrupts posted to CPU
system.tsunami.ethernet.coalescedRxOk             nan                       # average number of RxOk's coalesced into each post
system.tsunami.ethernet.totalRxOk                   0                       # total number of RxOk written to ISR
system.tsunami.ethernet.postedRxDesc                0                       # number of RxDesc interrupts posted to CPU
system.tsunami.ethernet.coalescedRxDesc           nan                       # average number of RxDesc's coalesced into each post
system.tsunami.ethernet.totalRxDesc                 0                       # total number of RxDesc written to ISR
system.tsunami.ethernet.postedTxOk                  0                       # number of TxOk interrupts posted to CPU
system.tsunami.ethernet.coalescedTxOk             nan                       # average number of TxOk's coalesced into each post
system.tsunami.ethernet.totalTxOk                   0                       # total number of TxOk written to ISR
system.tsunami.ethernet.postedTxIdle                0                       # number of TxIdle interrupts posted to CPU
system.tsunami.ethernet.coalescedTxIdle           nan                       # average number of TxIdle's coalesced into each post
system.tsunami.ethernet.totalTxIdle                 0                       # total number of TxIdle written to ISR
system.tsunami.ethernet.postedTxDesc                0                       # number of TxDesc interrupts posted to CPU
system.tsunami.ethernet.coalescedTxDesc           nan                       # average number of TxDesc's coalesced into each post
system.tsunami.ethernet.totalTxDesc                 0                       # total number of TxDesc written to ISR
system.tsunami.ethernet.postedRxOrn                 0                       # number of RxOrn posted to CPU
system.tsunami.ethernet.coalescedRxOrn            nan                       # average number of RxOrn's coalesced into each post
system.tsunami.ethernet.totalRxOrn                  0                       # total number of RxOrn written to ISR
system.tsunami.ethernet.coalescedTotal            nan                       # average number of interrupts coalesced into each post
system.tsunami.ethernet.postedInterrupts            0                       # number of posts to CPU
system.tsunami.ethernet.droppedPackets              0                       # number of packets dropped
system.switch_cpus0.kern.inst.arm                   0                       # number of arm instructions executed
system.switch_cpus0.kern.inst.quiesce               0                       # number of quiesce instructions executed
system.switch_cpus0.kern.inst.hwrei                 0                       # number of hwrei instructions executed
system.switch_cpus0.kern.mode_switch::kernel            0                       # number of protection mode switches
system.switch_cpus0.kern.mode_switch::user            0                       # number of protection mode switches
system.switch_cpus0.kern.mode_switch::idle            0                       # number of protection mode switches
system.switch_cpus0.kern.mode_good::kernel            0                      
system.switch_cpus0.kern.mode_good::user            0                      
system.switch_cpus0.kern.mode_good::idle            0                      
system.switch_cpus0.kern.mode_switch_good::kernel          nan                       # fraction of useful protection mode switches
system.switch_cpus0.kern.mode_switch_good::user          nan                       # fraction of useful protection mode switches
system.switch_cpus0.kern.mode_switch_good::idle          nan                       # fraction of useful protection mode switches
system.switch_cpus0.kern.mode_switch_good::total          nan                       # fraction of useful protection mode switches
system.switch_cpus0.kern.mode_ticks::kernel            0                       # number of ticks spent at the given mode
system.switch_cpus0.kern.mode_ticks::user            0                       # number of ticks spent at the given mode
system.switch_cpus0.kern.mode_ticks::idle            0                       # number of ticks spent at the given mode
system.switch_cpus0.kern.swap_context               0                       # number of times the context was actually changed
system.switch_cpus1.kern.inst.arm                   0                       # number of arm instructions executed
system.switch_cpus1.kern.inst.quiesce               0                       # number of quiesce instructions executed
system.switch_cpus1.kern.inst.hwrei                 0                       # number of hwrei instructions executed
system.switch_cpus1.kern.mode_switch::kernel            0                       # number of protection mode switches
system.switch_cpus1.kern.mode_switch::user            0                       # number of protection mode switches
system.switch_cpus1.kern.mode_switch::idle            0                       # number of protection mode switches
system.switch_cpus1.kern.mode_good::kernel            0                      
system.switch_cpus1.kern.mode_good::user            0                      
system.switch_cpus1.kern.mode_good::idle            0                      
system.switch_cpus1.kern.mode_switch_good::kernel          nan                       # fraction of useful protection mode switches
system.switch_cpus1.kern.mode_switch_good::user          nan                       # fraction of useful protection mode switches
system.switch_cpus1.kern.mode_switch_good::idle          nan                       # fraction of useful protection mode switches
system.switch_cpus1.kern.mode_switch_good::total          nan                       # fraction of useful protection mode switches
system.switch_cpus1.kern.mode_ticks::kernel            0                       # number of ticks spent at the given mode
system.switch_cpus1.kern.mode_ticks::user            0                       # number of ticks spent at the given mode
system.switch_cpus1.kern.mode_ticks::idle            0                       # number of ticks spent at the given mode
system.switch_cpus1.kern.swap_context               0                       # number of times the context was actually changed
system.switch_cpus2.kern.inst.arm                   0                       # number of arm instructions executed
system.switch_cpus2.kern.inst.quiesce               0                       # number of quiesce instructions executed
system.switch_cpus2.kern.inst.hwrei                 0                       # number of hwrei instructions executed
system.switch_cpus2.kern.mode_switch::kernel            0                       # number of protection mode switches
system.switch_cpus2.kern.mode_switch::user            0                       # number of protection mode switches
system.switch_cpus2.kern.mode_switch::idle            0                       # number of protection mode switches
system.switch_cpus2.kern.mode_good::kernel            0                      
system.switch_cpus2.kern.mode_good::user            0                      
system.switch_cpus2.kern.mode_good::idle            0                      
system.switch_cpus2.kern.mode_switch_good::kernel          nan                       # fraction of useful protection mode switches
system.switch_cpus2.kern.mode_switch_good::user          nan                       # fraction of useful protection mode switches
system.switch_cpus2.kern.mode_switch_good::idle          nan                       # fraction of useful protection mode switches
system.switch_cpus2.kern.mode_switch_good::total          nan                       # fraction of useful protection mode switches
system.switch_cpus2.kern.mode_ticks::kernel            0                       # number of ticks spent at the given mode
system.switch_cpus2.kern.mode_ticks::user            0                       # number of ticks spent at the given mode
system.switch_cpus2.kern.mode_ticks::idle            0                       # number of ticks spent at the given mode
system.switch_cpus2.kern.swap_context               0                       # number of times the context was actually changed
system.switch_cpus3.kern.inst.arm                   0                       # number of arm instructions executed
system.switch_cpus3.kern.inst.quiesce               0                       # number of quiesce instructions executed
system.switch_cpus3.kern.inst.hwrei                 0                       # number of hwrei instructions executed
system.switch_cpus3.kern.mode_switch::kernel            0                       # number of protection mode switches
system.switch_cpus3.kern.mode_switch::user            0                       # number of protection mode switches
system.switch_cpus3.kern.mode_switch::idle            0                       # number of protection mode switches
system.switch_cpus3.kern.mode_good::kernel            0                      
system.switch_cpus3.kern.mode_good::user            0                      
system.switch_cpus3.kern.mode_good::idle            0                      
system.switch_cpus3.kern.mode_switch_good::kernel          nan                       # fraction of useful protection mode switches
system.switch_cpus3.kern.mode_switch_good::user          nan                       # fraction of useful protection mode switches
system.switch_cpus3.kern.mode_switch_good::idle          nan                       # fraction of useful protection mode switches
system.switch_cpus3.kern.mode_switch_good::total          nan                       # fraction of useful protection mode switches
system.switch_cpus3.kern.mode_ticks::kernel            0                       # number of ticks spent at the given mode
system.switch_cpus3.kern.mode_ticks::user            0                       # number of ticks spent at the given mode
system.switch_cpus3.kern.mode_ticks::idle            0                       # number of ticks spent at the given mode
system.switch_cpus3.kern.swap_context               0                       # number of times the context was actually changed

---------- End Simulation Statistics   ----------
