
---------- Begin Simulation Statistics ----------
sim_seconds                                  0.001191                       # Number of seconds simulated
sim_ticks                                  1191127000                       # Number of ticks simulated
final_tick                               2262442031000                       # Number of ticks from beginning of simulation (restored from checkpoints and never reset)
sim_freq                                 1000000000000                       # Frequency of simulated ticks
host_inst_rate                               33194391                       # Simulator instruction rate (inst/s)
host_op_rate                                 33194315                       # Simulator op (including micro ops) rate (op/s)
host_tick_rate                              335385770                       # Simulator tick rate (ticks/s)
host_mem_usage                                 740880                       # Number of bytes of host memory used
host_seconds                                     3.55                       # Real time elapsed on the host
sim_insts                                   117889823                       # Number of instructions simulated
sim_ops                                     117889823                       # Number of ops (including micro ops) simulated
system.voltage_domain.voltage                       1                       # Voltage in Volts
system.clk_domain.clock                          1000                       # Clock period in ticks
system.mem_ctrls.bytes_read::switch_cpus0.inst       181760                       # Number of bytes read from this memory
system.mem_ctrls.bytes_read::switch_cpus0.data       246656                       # Number of bytes read from this memory
system.mem_ctrls.bytes_read::switch_cpus1.inst        73728                       # Number of bytes read from this memory
system.mem_ctrls.bytes_read::switch_cpus1.data       139072                       # Number of bytes read from this memory
system.mem_ctrls.bytes_read::switch_cpus2.inst         4288                       # Number of bytes read from this memory
system.mem_ctrls.bytes_read::switch_cpus2.data         2496                       # Number of bytes read from this memory
system.mem_ctrls.bytes_read::switch_cpus3.inst       240128                       # Number of bytes read from this memory
system.mem_ctrls.bytes_read::switch_cpus3.data       694336                       # Number of bytes read from this memory
system.mem_ctrls.bytes_read::total            1582464                       # Number of bytes read from this memory
system.mem_ctrls.bytes_inst_read::switch_cpus0.inst       181760                       # Number of instructions bytes read from this memory
system.mem_ctrls.bytes_inst_read::switch_cpus1.inst        73728                       # Number of instructions bytes read from this memory
system.mem_ctrls.bytes_inst_read::switch_cpus2.inst         4288                       # Number of instructions bytes read from this memory
system.mem_ctrls.bytes_inst_read::switch_cpus3.inst       240128                       # Number of instructions bytes read from this memory
system.mem_ctrls.bytes_inst_read::total        499904                       # Number of instructions bytes read from this memory
system.mem_ctrls.bytes_written::writebacks       665216                       # Number of bytes written to this memory
system.mem_ctrls.bytes_written::total          665216                       # Number of bytes written to this memory
system.mem_ctrls.num_reads::switch_cpus0.inst         2840                       # Number of read requests responded to by this memory
system.mem_ctrls.num_reads::switch_cpus0.data         3854                       # Number of read requests responded to by this memory
system.mem_ctrls.num_reads::switch_cpus1.inst         1152                       # Number of read requests responded to by this memory
system.mem_ctrls.num_reads::switch_cpus1.data         2173                       # Number of read requests responded to by this memory
system.mem_ctrls.num_reads::switch_cpus2.inst           67                       # Number of read requests responded to by this memory
system.mem_ctrls.num_reads::switch_cpus2.data           39                       # Number of read requests responded to by this memory
system.mem_ctrls.num_reads::switch_cpus3.inst         3752                       # Number of read requests responded to by this memory
system.mem_ctrls.num_reads::switch_cpus3.data        10849                       # Number of read requests responded to by this memory
system.mem_ctrls.num_reads::total               24726                       # Number of read requests responded to by this memory
system.mem_ctrls.num_writes::writebacks         10394                       # Number of write requests responded to by this memory
system.mem_ctrls.num_writes::total              10394                       # Number of write requests responded to by this memory
system.mem_ctrls.bw_read::switch_cpus0.inst    152594979                       # Total read bandwidth from this memory (bytes/s)
system.mem_ctrls.bw_read::switch_cpus0.data    207077835                       # Total read bandwidth from this memory (bytes/s)
system.mem_ctrls.bw_read::switch_cpus1.inst     61897682                       # Total read bandwidth from this memory (bytes/s)
system.mem_ctrls.bw_read::switch_cpus1.data    116756651                       # Total read bandwidth from this memory (bytes/s)
system.mem_ctrls.bw_read::switch_cpus2.inst      3599952                       # Total read bandwidth from this memory (bytes/s)
system.mem_ctrls.bw_read::switch_cpus2.data      2095494                       # Total read bandwidth from this memory (bytes/s)
system.mem_ctrls.bw_read::switch_cpus3.inst    201597311                       # Total read bandwidth from this memory (bytes/s)
system.mem_ctrls.bw_read::switch_cpus3.data    582923567                       # Total read bandwidth from this memory (bytes/s)
system.mem_ctrls.bw_read::total            1328543472                       # Total read bandwidth from this memory (bytes/s)
system.mem_ctrls.bw_inst_read::switch_cpus0.inst    152594979                       # Instruction read bandwidth from this memory (bytes/s)
system.mem_ctrls.bw_inst_read::switch_cpus1.inst     61897682                       # Instruction read bandwidth from this memory (bytes/s)
system.mem_ctrls.bw_inst_read::switch_cpus2.inst      3599952                       # Instruction read bandwidth from this memory (bytes/s)
system.mem_ctrls.bw_inst_read::switch_cpus3.inst    201597311                       # Instruction read bandwidth from this memory (bytes/s)
system.mem_ctrls.bw_inst_read::total        419689924                       # Instruction read bandwidth from this memory (bytes/s)
system.mem_ctrls.bw_write::writebacks       558476132                       # Write bandwidth from this memory (bytes/s)
system.mem_ctrls.bw_write::total            558476132                       # Write bandwidth from this memory (bytes/s)
system.mem_ctrls.bw_total::writebacks       558476132                       # Total bandwidth to/from this memory (bytes/s)
system.mem_ctrls.bw_total::switch_cpus0.inst    152594979                       # Total bandwidth to/from this memory (bytes/s)
system.mem_ctrls.bw_total::switch_cpus0.data    207077835                       # Total bandwidth to/from this memory (bytes/s)
system.mem_ctrls.bw_total::switch_cpus1.inst     61897682                       # Total bandwidth to/from this memory (bytes/s)
system.mem_ctrls.bw_total::switch_cpus1.data    116756651                       # Total bandwidth to/from this memory (bytes/s)
system.mem_ctrls.bw_total::switch_cpus2.inst      3599952                       # Total bandwidth to/from this memory (bytes/s)
system.mem_ctrls.bw_total::switch_cpus2.data      2095494                       # Total bandwidth to/from this memory (bytes/s)
system.mem_ctrls.bw_total::switch_cpus3.inst    201597311                       # Total bandwidth to/from this memory (bytes/s)
system.mem_ctrls.bw_total::switch_cpus3.data    582923567                       # Total bandwidth to/from this memory (bytes/s)
system.mem_ctrls.bw_total::total           1887019604                       # Total bandwidth to/from this memory (bytes/s)
system.mem_ctrls.readReqs                       24726                       # Number of read requests accepted
system.mem_ctrls.writeReqs                      10394                       # Number of write requests accepted
system.mem_ctrls.readBursts                     24726                       # Number of DRAM read bursts, including those serviced by the write queue
system.mem_ctrls.writeBursts                    10394                       # Number of DRAM write bursts, including those merged in the write queue
system.mem_ctrls.bytesReadDRAM                1578496                       # Total number of bytes read from DRAM
system.mem_ctrls.bytesReadWrQ                    3968                       # Total number of bytes read from write queue
system.mem_ctrls.bytesWritten                  663872                       # Total number of bytes written to DRAM
system.mem_ctrls.bytesReadSys                 1582464                       # Total read bytes from the system interface side
system.mem_ctrls.bytesWrittenSys               665216                       # Total written bytes from the system interface side
system.mem_ctrls.servicedByWrQ                     62                       # Number of DRAM read bursts serviced by the write queue
system.mem_ctrls.mergedWrBursts                     0                       # Number of DRAM write bursts merged with an existing one
system.mem_ctrls.neitherReadNorWriteReqs           60                       # Number of requests that are neither read nor write
system.mem_ctrls.perBankRdBursts::0              1156                       # Per bank write bursts
system.mem_ctrls.perBankRdBursts::1              1206                       # Per bank write bursts
system.mem_ctrls.perBankRdBursts::2              1565                       # Per bank write bursts
system.mem_ctrls.perBankRdBursts::3               949                       # Per bank write bursts
system.mem_ctrls.perBankRdBursts::4              1293                       # Per bank write bursts
system.mem_ctrls.perBankRdBursts::5              1962                       # Per bank write bursts
system.mem_ctrls.perBankRdBursts::6              1423                       # Per bank write bursts
system.mem_ctrls.perBankRdBursts::7              1211                       # Per bank write bursts
system.mem_ctrls.perBankRdBursts::8              1826                       # Per bank write bursts
system.mem_ctrls.perBankRdBursts::9              1925                       # Per bank write bursts
system.mem_ctrls.perBankRdBursts::10             1407                       # Per bank write bursts
system.mem_ctrls.perBankRdBursts::11             1305                       # Per bank write bursts
system.mem_ctrls.perBankRdBursts::12             1751                       # Per bank write bursts
system.mem_ctrls.perBankRdBursts::13             2434                       # Per bank write bursts
system.mem_ctrls.perBankRdBursts::14             1700                       # Per bank write bursts
system.mem_ctrls.perBankRdBursts::15             1551                       # Per bank write bursts
system.mem_ctrls.perBankWrBursts::0               421                       # Per bank write bursts
system.mem_ctrls.perBankWrBursts::1               626                       # Per bank write bursts
system.mem_ctrls.perBankWrBursts::2               391                       # Per bank write bursts
system.mem_ctrls.perBankWrBursts::3               196                       # Per bank write bursts
system.mem_ctrls.perBankWrBursts::4               328                       # Per bank write bursts
system.mem_ctrls.perBankWrBursts::5               797                       # Per bank write bursts
system.mem_ctrls.perBankWrBursts::6               394                       # Per bank write bursts
system.mem_ctrls.perBankWrBursts::7               298                       # Per bank write bursts
system.mem_ctrls.perBankWrBursts::8               454                       # Per bank write bursts
system.mem_ctrls.perBankWrBursts::9               603                       # Per bank write bursts
system.mem_ctrls.perBankWrBursts::10              764                       # Per bank write bursts
system.mem_ctrls.perBankWrBursts::11              764                       # Per bank write bursts
system.mem_ctrls.perBankWrBursts::12             1133                       # Per bank write bursts
system.mem_ctrls.perBankWrBursts::13             1200                       # Per bank write bursts
system.mem_ctrls.perBankWrBursts::14             1045                       # Per bank write bursts
system.mem_ctrls.perBankWrBursts::15              959                       # Per bank write bursts
system.mem_ctrls.numRdRetry                         0                       # Number of times read queue was full causing retry
system.mem_ctrls.numWrRetry                         0                       # Number of times write queue was full causing retry
system.mem_ctrls.totGap                    1191039500                       # Total gap between requests
system.mem_ctrls.readPktSize::0                     0                       # Read request sizes (log2)
system.mem_ctrls.readPktSize::1                     0                       # Read request sizes (log2)
system.mem_ctrls.readPktSize::2                     0                       # Read request sizes (log2)
system.mem_ctrls.readPktSize::3                     0                       # Read request sizes (log2)
system.mem_ctrls.readPktSize::4                     0                       # Read request sizes (log2)
system.mem_ctrls.readPktSize::5                     0                       # Read request sizes (log2)
system.mem_ctrls.readPktSize::6                 24726                       # Read request sizes (log2)
system.mem_ctrls.writePktSize::0                    0                       # Write request sizes (log2)
system.mem_ctrls.writePktSize::1                    0                       # Write request sizes (log2)
system.mem_ctrls.writePktSize::2                    0                       # Write request sizes (log2)
system.mem_ctrls.writePktSize::3                    0                       # Write request sizes (log2)
system.mem_ctrls.writePktSize::4                    0                       # Write request sizes (log2)
system.mem_ctrls.writePktSize::5                    0                       # Write request sizes (log2)
system.mem_ctrls.writePktSize::6                10394                       # Write request sizes (log2)
system.mem_ctrls.rdQLenPdf::0                   11403                       # What read queue length does an incoming req see
system.mem_ctrls.rdQLenPdf::1                    6726                       # What read queue length does an incoming req see
system.mem_ctrls.rdQLenPdf::2                    3857                       # What read queue length does an incoming req see
system.mem_ctrls.rdQLenPdf::3                    2208                       # What read queue length does an incoming req see
system.mem_ctrls.rdQLenPdf::4                     286                       # What read queue length does an incoming req see
system.mem_ctrls.rdQLenPdf::5                      99                       # What read queue length does an incoming req see
system.mem_ctrls.rdQLenPdf::6                      53                       # What read queue length does an incoming req see
system.mem_ctrls.rdQLenPdf::7                      23                       # What read queue length does an incoming req see
system.mem_ctrls.rdQLenPdf::8                       4                       # What read queue length does an incoming req see
system.mem_ctrls.rdQLenPdf::9                       1                       # What read queue length does an incoming req see
system.mem_ctrls.rdQLenPdf::10                      1                       # What read queue length does an incoming req see
system.mem_ctrls.rdQLenPdf::11                      2                       # What read queue length does an incoming req see
system.mem_ctrls.rdQLenPdf::12                      1                       # What read queue length does an incoming req see
system.mem_ctrls.rdQLenPdf::13                      0                       # What read queue length does an incoming req see
system.mem_ctrls.rdQLenPdf::14                      0                       # What read queue length does an incoming req see
system.mem_ctrls.rdQLenPdf::15                      0                       # What read queue length does an incoming req see
system.mem_ctrls.rdQLenPdf::16                      0                       # What read queue length does an incoming req see
system.mem_ctrls.rdQLenPdf::17                      0                       # What read queue length does an incoming req see
system.mem_ctrls.rdQLenPdf::18                      0                       # What read queue length does an incoming req see
system.mem_ctrls.rdQLenPdf::19                      0                       # What read queue length does an incoming req see
system.mem_ctrls.rdQLenPdf::20                      0                       # What read queue length does an incoming req see
system.mem_ctrls.rdQLenPdf::21                      0                       # What read queue length does an incoming req see
system.mem_ctrls.rdQLenPdf::22                      0                       # What read queue length does an incoming req see
system.mem_ctrls.rdQLenPdf::23                      0                       # What read queue length does an incoming req see
system.mem_ctrls.rdQLenPdf::24                      0                       # What read queue length does an incoming req see
system.mem_ctrls.rdQLenPdf::25                      0                       # What read queue length does an incoming req see
system.mem_ctrls.rdQLenPdf::26                      0                       # What read queue length does an incoming req see
system.mem_ctrls.rdQLenPdf::27                      0                       # What read queue length does an incoming req see
system.mem_ctrls.rdQLenPdf::28                      0                       # What read queue length does an incoming req see
system.mem_ctrls.rdQLenPdf::29                      0                       # What read queue length does an incoming req see
system.mem_ctrls.rdQLenPdf::30                      0                       # What read queue length does an incoming req see
system.mem_ctrls.rdQLenPdf::31                      0                       # What read queue length does an incoming req see
system.mem_ctrls.wrQLenPdf::0                       1                       # What write queue length does an incoming req see
system.mem_ctrls.wrQLenPdf::1                       1                       # What write queue length does an incoming req see
system.mem_ctrls.wrQLenPdf::2                       1                       # What write queue length does an incoming req see
system.mem_ctrls.wrQLenPdf::3                       1                       # What write queue length does an incoming req see
system.mem_ctrls.wrQLenPdf::4                       1                       # What write queue length does an incoming req see
system.mem_ctrls.wrQLenPdf::5                       1                       # What write queue length does an incoming req see
system.mem_ctrls.wrQLenPdf::6                       1                       # What write queue length does an incoming req see
system.mem_ctrls.wrQLenPdf::7                       1                       # What write queue length does an incoming req see
system.mem_ctrls.wrQLenPdf::8                       1                       # What write queue length does an incoming req see
system.mem_ctrls.wrQLenPdf::9                       1                       # What write queue length does an incoming req see
system.mem_ctrls.wrQLenPdf::10                      1                       # What write queue length does an incoming req see
system.mem_ctrls.wrQLenPdf::11                      1                       # What write queue length does an incoming req see
system.mem_ctrls.wrQLenPdf::12                      1                       # What write queue length does an incoming req see
system.mem_ctrls.wrQLenPdf::13                      1                       # What write queue length does an incoming req see
system.mem_ctrls.wrQLenPdf::14                      1                       # What write queue length does an incoming req see
system.mem_ctrls.wrQLenPdf::15                     50                       # What write queue length does an incoming req see
system.mem_ctrls.wrQLenPdf::16                     58                       # What write queue length does an incoming req see
system.mem_ctrls.wrQLenPdf::17                    289                       # What write queue length does an incoming req see
system.mem_ctrls.wrQLenPdf::18                    467                       # What write queue length does an incoming req see
system.mem_ctrls.wrQLenPdf::19                    560                       # What write queue length does an incoming req see
system.mem_ctrls.wrQLenPdf::20                    619                       # What write queue length does an incoming req see
system.mem_ctrls.wrQLenPdf::21                    651                       # What write queue length does an incoming req see
system.mem_ctrls.wrQLenPdf::22                    654                       # What write queue length does an incoming req see
system.mem_ctrls.wrQLenPdf::23                    673                       # What write queue length does an incoming req see
system.mem_ctrls.wrQLenPdf::24                    675                       # What write queue length does an incoming req see
system.mem_ctrls.wrQLenPdf::25                    692                       # What write queue length does an incoming req see
system.mem_ctrls.wrQLenPdf::26                    823                       # What write queue length does an incoming req see
system.mem_ctrls.wrQLenPdf::27                    703                       # What write queue length does an incoming req see
system.mem_ctrls.wrQLenPdf::28                    707                       # What write queue length does an incoming req see
system.mem_ctrls.wrQLenPdf::29                    740                       # What write queue length does an incoming req see
system.mem_ctrls.wrQLenPdf::30                    682                       # What write queue length does an incoming req see
system.mem_ctrls.wrQLenPdf::31                    685                       # What write queue length does an incoming req see
system.mem_ctrls.wrQLenPdf::32                    643                       # What write queue length does an incoming req see
system.mem_ctrls.wrQLenPdf::33                      7                       # What write queue length does an incoming req see
system.mem_ctrls.wrQLenPdf::34                      1                       # What write queue length does an incoming req see
system.mem_ctrls.wrQLenPdf::35                      0                       # What write queue length does an incoming req see
system.mem_ctrls.wrQLenPdf::36                      0                       # What write queue length does an incoming req see
system.mem_ctrls.wrQLenPdf::37                      0                       # What write queue length does an incoming req see
system.mem_ctrls.wrQLenPdf::38                      0                       # What write queue length does an incoming req see
system.mem_ctrls.wrQLenPdf::39                      0                       # What write queue length does an incoming req see
system.mem_ctrls.wrQLenPdf::40                      0                       # What write queue length does an incoming req see
system.mem_ctrls.wrQLenPdf::41                      0                       # What write queue length does an incoming req see
system.mem_ctrls.wrQLenPdf::42                      0                       # What write queue length does an incoming req see
system.mem_ctrls.wrQLenPdf::43                      0                       # What write queue length does an incoming req see
system.mem_ctrls.wrQLenPdf::44                      0                       # What write queue length does an incoming req see
system.mem_ctrls.wrQLenPdf::45                      0                       # What write queue length does an incoming req see
system.mem_ctrls.wrQLenPdf::46                      0                       # What write queue length does an incoming req see
system.mem_ctrls.wrQLenPdf::47                      0                       # What write queue length does an incoming req see
system.mem_ctrls.wrQLenPdf::48                      0                       # What write queue length does an incoming req see
system.mem_ctrls.wrQLenPdf::49                      0                       # What write queue length does an incoming req see
system.mem_ctrls.wrQLenPdf::50                      0                       # What write queue length does an incoming req see
system.mem_ctrls.wrQLenPdf::51                      0                       # What write queue length does an incoming req see
system.mem_ctrls.wrQLenPdf::52                      0                       # What write queue length does an incoming req see
system.mem_ctrls.wrQLenPdf::53                      0                       # What write queue length does an incoming req see
system.mem_ctrls.wrQLenPdf::54                      0                       # What write queue length does an incoming req see
system.mem_ctrls.wrQLenPdf::55                      0                       # What write queue length does an incoming req see
system.mem_ctrls.wrQLenPdf::56                      0                       # What write queue length does an incoming req see
system.mem_ctrls.wrQLenPdf::57                      0                       # What write queue length does an incoming req see
system.mem_ctrls.wrQLenPdf::58                      0                       # What write queue length does an incoming req see
system.mem_ctrls.wrQLenPdf::59                      0                       # What write queue length does an incoming req see
system.mem_ctrls.wrQLenPdf::60                      0                       # What write queue length does an incoming req see
system.mem_ctrls.wrQLenPdf::61                      0                       # What write queue length does an incoming req see
system.mem_ctrls.wrQLenPdf::62                      0                       # What write queue length does an incoming req see
system.mem_ctrls.wrQLenPdf::63                      0                       # What write queue length does an incoming req see
system.mem_ctrls.bytesPerActivate::samples         9223                       # Bytes accessed per row activation
system.mem_ctrls.bytesPerActivate::mean    242.773935                       # Bytes accessed per row activation
system.mem_ctrls.bytesPerActivate::gmean   142.703815                       # Bytes accessed per row activation
system.mem_ctrls.bytesPerActivate::stdev   293.233434                       # Bytes accessed per row activation
system.mem_ctrls.bytesPerActivate::0-127         4408     47.79%     47.79% # Bytes accessed per row activation
system.mem_ctrls.bytesPerActivate::128-255         2227     24.15%     71.94% # Bytes accessed per row activation
system.mem_ctrls.bytesPerActivate::256-383          742      8.05%     79.98% # Bytes accessed per row activation
system.mem_ctrls.bytesPerActivate::384-511          393      4.26%     84.25% # Bytes accessed per row activation
system.mem_ctrls.bytesPerActivate::512-639          251      2.72%     86.97% # Bytes accessed per row activation
system.mem_ctrls.bytesPerActivate::640-767          177      1.92%     88.89% # Bytes accessed per row activation
system.mem_ctrls.bytesPerActivate::768-895          157      1.70%     90.59% # Bytes accessed per row activation
system.mem_ctrls.bytesPerActivate::896-1023          106      1.15%     91.74% # Bytes accessed per row activation
system.mem_ctrls.bytesPerActivate::1024-1151          762      8.26%    100.00% # Bytes accessed per row activation
system.mem_ctrls.bytesPerActivate::total         9223                       # Bytes accessed per row activation
system.mem_ctrls.rdPerTurnAround::samples          640                       # Reads before turning the bus around for writes
system.mem_ctrls.rdPerTurnAround::mean      38.498438                       # Reads before turning the bus around for writes
system.mem_ctrls.rdPerTurnAround::gmean     31.659433                       # Reads before turning the bus around for writes
system.mem_ctrls.rdPerTurnAround::stdev     26.798851                       # Reads before turning the bus around for writes
system.mem_ctrls.rdPerTurnAround::8-15             40      6.25%      6.25% # Reads before turning the bus around for writes
system.mem_ctrls.rdPerTurnAround::16-23           202     31.56%     37.81% # Reads before turning the bus around for writes
system.mem_ctrls.rdPerTurnAround::24-31            86     13.44%     51.25% # Reads before turning the bus around for writes
system.mem_ctrls.rdPerTurnAround::32-39            74     11.56%     62.81% # Reads before turning the bus around for writes
system.mem_ctrls.rdPerTurnAround::40-47            75     11.72%     74.53% # Reads before turning the bus around for writes
system.mem_ctrls.rdPerTurnAround::48-55            39      6.09%     80.62% # Reads before turning the bus around for writes
system.mem_ctrls.rdPerTurnAround::56-63            27      4.22%     84.84% # Reads before turning the bus around for writes
system.mem_ctrls.rdPerTurnAround::64-71            34      5.31%     90.16% # Reads before turning the bus around for writes
system.mem_ctrls.rdPerTurnAround::72-79            16      2.50%     92.66% # Reads before turning the bus around for writes
system.mem_ctrls.rdPerTurnAround::80-87            13      2.03%     94.69% # Reads before turning the bus around for writes
system.mem_ctrls.rdPerTurnAround::88-95             3      0.47%     95.16% # Reads before turning the bus around for writes
system.mem_ctrls.rdPerTurnAround::96-103            6      0.94%     96.09% # Reads before turning the bus around for writes
system.mem_ctrls.rdPerTurnAround::104-111            7      1.09%     97.19% # Reads before turning the bus around for writes
system.mem_ctrls.rdPerTurnAround::112-119            5      0.78%     97.97% # Reads before turning the bus around for writes
system.mem_ctrls.rdPerTurnAround::120-127            5      0.78%     98.75% # Reads before turning the bus around for writes
system.mem_ctrls.rdPerTurnAround::128-135            1      0.16%     98.91% # Reads before turning the bus around for writes
system.mem_ctrls.rdPerTurnAround::136-143            1      0.16%     99.06% # Reads before turning the bus around for writes
system.mem_ctrls.rdPerTurnAround::144-151            3      0.47%     99.53% # Reads before turning the bus around for writes
system.mem_ctrls.rdPerTurnAround::160-167            1      0.16%     99.69% # Reads before turning the bus around for writes
system.mem_ctrls.rdPerTurnAround::168-175            1      0.16%     99.84% # Reads before turning the bus around for writes
system.mem_ctrls.rdPerTurnAround::184-191            1      0.16%    100.00% # Reads before turning the bus around for writes
system.mem_ctrls.rdPerTurnAround::total           640                       # Reads before turning the bus around for writes
system.mem_ctrls.wrPerTurnAround::samples          640                       # Writes before turning the bus around for reads
system.mem_ctrls.wrPerTurnAround::mean      16.207812                       # Writes before turning the bus around for reads
system.mem_ctrls.wrPerTurnAround::gmean     16.194977                       # Writes before turning the bus around for reads
system.mem_ctrls.wrPerTurnAround::stdev      0.672929                       # Writes before turning the bus around for reads
system.mem_ctrls.wrPerTurnAround::16              580     90.62%     90.62% # Writes before turning the bus around for reads
system.mem_ctrls.wrPerTurnAround::17                4      0.62%     91.25% # Writes before turning the bus around for reads
system.mem_ctrls.wrPerTurnAround::18               41      6.41%     97.66% # Writes before turning the bus around for reads
system.mem_ctrls.wrPerTurnAround::19               13      2.03%     99.69% # Writes before turning the bus around for reads
system.mem_ctrls.wrPerTurnAround::20                2      0.31%    100.00% # Writes before turning the bus around for reads
system.mem_ctrls.wrPerTurnAround::total           640                       # Writes before turning the bus around for reads
system.mem_ctrls.totQLat                    499575250                       # Total ticks spent queuing
system.mem_ctrls.totMemAccLat               962025250                       # Total ticks spent from burst creation until serviced by the DRAM
system.mem_ctrls.totBusLat                  123320000                       # Total ticks spent in databus transfers
system.mem_ctrls.avgQLat                     20255.24                       # Average queueing delay per DRAM burst
system.mem_ctrls.avgBusLat                    5000.00                       # Average bus latency per DRAM burst
system.mem_ctrls.avgMemAccLat                39005.24                       # Average memory access latency per DRAM burst
system.mem_ctrls.avgRdBW                      1325.21                       # Average DRAM read bandwidth in MiByte/s
system.mem_ctrls.avgWrBW                       557.35                       # Average achieved write bandwidth in MiByte/s
system.mem_ctrls.avgRdBWSys                   1328.54                       # Average system read bandwidth in MiByte/s
system.mem_ctrls.avgWrBWSys                    558.48                       # Average system write bandwidth in MiByte/s
system.mem_ctrls.peakBW                      12800.00                       # Theoretical peak bandwidth in MiByte/s
system.mem_ctrls.busUtil                        14.71                       # Data bus utilization in percentage
system.mem_ctrls.busUtilRead                    10.35                       # Data bus utilization in percentage for reads
system.mem_ctrls.busUtilWrite                    4.35                       # Data bus utilization in percentage for writes
system.mem_ctrls.avgRdQLen                       1.93                       # Average read queue length when enqueuing
system.mem_ctrls.avgWrQLen                      25.81                       # Average write queue length when enqueuing
system.mem_ctrls.readRowHits                    18410                       # Number of row buffer hits during reads
system.mem_ctrls.writeRowHits                    7389                       # Number of row buffer hits during writes
system.mem_ctrls.readRowHitRate                 74.64                       # Row buffer hit rate for reads
system.mem_ctrls.writeRowHitRate                71.09                       # Row buffer hit rate for writes
system.mem_ctrls.avgGap                      33913.43                       # Average gap between requests
system.mem_ctrls.pageHitRate                    73.59                       # Row buffer hit rate, read and write combined
system.mem_ctrls_0.actEnergy                 27238680                       # Energy for activate commands per rank (pJ)
system.mem_ctrls_0.preEnergy                 14862375                       # Energy for precharge commands per rank (pJ)
system.mem_ctrls_0.readEnergy                83600400                       # Energy for read commands per rank (pJ)
system.mem_ctrls_0.writeEnergy               22006080                       # Energy for write commands per rank (pJ)
system.mem_ctrls_0.refreshEnergy             77301120                       # Energy for refresh commands per rank (pJ)
system.mem_ctrls_0.actBackEnergy            784270125                       # Energy for active background per rank (pJ)
system.mem_ctrls_0.preBackEnergy             22305750                       # Energy for precharge background per rank (pJ)
system.mem_ctrls_0.totalEnergy             1031584530                       # Total energy per rank (pJ)
system.mem_ctrls_0.averagePower            871.440001                       # Core power per rank (mW)
system.mem_ctrls_0.memoryStateTime::IDLE     32648750                       # Time in different power states
system.mem_ctrls_0.memoryStateTime::REF      39520000                       # Time in different power states
system.mem_ctrls_0.memoryStateTime::PRE_PDN            0                       # Time in different power states
system.mem_ctrls_0.memoryStateTime::ACT    1112364750                       # Time in different power states
system.mem_ctrls_0.memoryStateTime::ACT_PDN            0                       # Time in different power states
system.mem_ctrls_1.actEnergy                 42026040                       # Energy for activate commands per rank (pJ)
system.mem_ctrls_1.preEnergy                 22930875                       # Energy for precharge commands per rank (pJ)
system.mem_ctrls_1.readEnergy               107866200                       # Energy for read commands per rank (pJ)
system.mem_ctrls_1.writeEnergy               44783280                       # Energy for write commands per rank (pJ)
system.mem_ctrls_1.refreshEnergy             77301120                       # Energy for refresh commands per rank (pJ)
system.mem_ctrls_1.actBackEnergy            788203980                       # Energy for active background per rank (pJ)
system.mem_ctrls_1.preBackEnergy             18855000                       # Energy for precharge background per rank (pJ)
system.mem_ctrls_1.totalEnergy             1101966495                       # Total energy per rank (pJ)
system.mem_ctrls_1.averagePower            930.895778                       # Core power per rank (mW)
system.mem_ctrls_1.memoryStateTime::IDLE     26389500                       # Time in different power states
system.mem_ctrls_1.memoryStateTime::REF      39520000                       # Time in different power states
system.mem_ctrls_1.memoryStateTime::PRE_PDN            0                       # Time in different power states
system.mem_ctrls_1.memoryStateTime::ACT    1117874250                       # Time in different power states
system.mem_ctrls_1.memoryStateTime::ACT_PDN            0                       # Time in different power states
system.cpu_voltage_domain.voltage                   1                       # Voltage in Volts
system.cpu_clk_domain.clock                       500                       # Clock period in ticks
system.cpu0.dtb.fetch_hits                          0                       # ITB hits
system.cpu0.dtb.fetch_misses                        0                       # ITB misses
system.cpu0.dtb.fetch_acv                           0                       # ITB acv
system.cpu0.dtb.fetch_accesses                      0                       # ITB accesses
system.cpu0.dtb.read_hits                           0                       # DTB read hits
system.cpu0.dtb.read_misses                         0                       # DTB read misses
system.cpu0.dtb.read_acv                            0                       # DTB read access violations
system.cpu0.dtb.read_accesses                       0                       # DTB read accesses
system.cpu0.dtb.write_hits                          0                       # DTB write hits
system.cpu0.dtb.write_misses                        0                       # DTB write misses
system.cpu0.dtb.write_acv                           0                       # DTB write access violations
system.cpu0.dtb.write_accesses                      0                       # DTB write accesses
system.cpu0.dtb.data_hits                           0                       # DTB hits
system.cpu0.dtb.data_misses                         0                       # DTB misses
system.cpu0.dtb.data_acv                            0                       # DTB access violations
system.cpu0.dtb.data_accesses                       0                       # DTB accesses
system.cpu0.itb.fetch_hits                          0                       # ITB hits
system.cpu0.itb.fetch_misses                        0                       # ITB misses
system.cpu0.itb.fetch_acv                           0                       # ITB acv
system.cpu0.itb.fetch_accesses                      0                       # ITB accesses
system.cpu0.itb.read_hits                           0                       # DTB read hits
system.cpu0.itb.read_misses                         0                       # DTB read misses
system.cpu0.itb.read_acv                            0                       # DTB read access violations
system.cpu0.itb.read_accesses                       0                       # DTB read accesses
system.cpu0.itb.write_hits                          0                       # DTB write hits
system.cpu0.itb.write_misses                        0                       # DTB write misses
system.cpu0.itb.write_acv                           0                       # DTB write access violations
system.cpu0.itb.write_accesses                      0                       # DTB write accesses
system.cpu0.itb.data_hits                           0                       # DTB hits
system.cpu0.itb.data_misses                         0                       # DTB misses
system.cpu0.itb.data_acv                            0                       # DTB access violations
system.cpu0.itb.data_accesses                       0                       # DTB accesses
system.cpu0.numCycles                               0                       # number of cpu cycles simulated
system.cpu0.numWorkItemsStarted                     0                       # number of work items this cpu started
system.cpu0.numWorkItemsCompleted                   0                       # number of work items this cpu completed
system.cpu0.committedInsts                          0                       # Number of instructions committed
system.cpu0.committedOps                            0                       # Number of ops (including micro ops) committed
system.cpu0.num_int_alu_accesses                    0                       # Number of integer alu accesses
system.cpu0.num_fp_alu_accesses                     0                       # Number of float alu accesses
system.cpu0.num_func_calls                          0                       # number of times a function call or return occured
system.cpu0.num_conditional_control_insts            0                       # number of instructions that are conditional controls
system.cpu0.num_int_insts                           0                       # number of integer instructions
system.cpu0.num_fp_insts                            0                       # number of float instructions
system.cpu0.num_int_register_reads                  0                       # number of times the integer registers were read
system.cpu0.num_int_register_writes                 0                       # number of times the integer registers were written
system.cpu0.num_fp_register_reads                   0                       # number of times the floating registers were read
system.cpu0.num_fp_register_writes                  0                       # number of times the floating registers were written
system.cpu0.num_mem_refs                            0                       # number of memory refs
system.cpu0.num_load_insts                          0                       # Number of load instructions
system.cpu0.num_store_insts                         0                       # Number of store instructions
system.cpu0.num_idle_cycles                         0                       # Number of idle cycles
system.cpu0.num_busy_cycles                         0                       # Number of busy cycles
system.cpu0.not_idle_fraction                       1                       # Percentage of non-idle cycles
system.cpu0.idle_fraction                           0                       # Percentage of idle cycles
system.cpu0.op_class::No_OpClass                    0                       # Class of executed instruction
system.cpu0.op_class::IntAlu                        0                       # Class of executed instruction
system.cpu0.op_class::IntMult                       0                       # Class of executed instruction
system.cpu0.op_class::IntDiv                        0                       # Class of executed instruction
system.cpu0.op_class::FloatAdd                      0                       # Class of executed instruction
system.cpu0.op_class::FloatCmp                      0                       # Class of executed instruction
system.cpu0.op_class::FloatCvt                      0                       # Class of executed instruction
system.cpu0.op_class::FloatMult                     0                       # Class of executed instruction
system.cpu0.op_class::FloatDiv                      0                       # Class of executed instruction
system.cpu0.op_class::FloatSqrt                     0                       # Class of executed instruction
system.cpu0.op_class::SimdAdd                       0                       # Class of executed instruction
system.cpu0.op_class::SimdAddAcc                    0                       # Class of executed instruction
system.cpu0.op_class::SimdAlu                       0                       # Class of executed instruction
system.cpu0.op_class::SimdCmp                       0                       # Class of executed instruction
system.cpu0.op_class::SimdCvt                       0                       # Class of executed instruction
system.cpu0.op_class::SimdMisc                      0                       # Class of executed instruction
system.cpu0.op_class::SimdMult                      0                       # Class of executed instruction
system.cpu0.op_class::SimdMultAcc                   0                       # Class of executed instruction
system.cpu0.op_class::SimdShift                     0                       # Class of executed instruction
system.cpu0.op_class::SimdShiftAcc                  0                       # Class of executed instruction
system.cpu0.op_class::SimdSqrt                      0                       # Class of executed instruction
system.cpu0.op_class::SimdFloatAdd                  0                       # Class of executed instruction
system.cpu0.op_class::SimdFloatAlu                  0                       # Class of executed instruction
system.cpu0.op_class::SimdFloatCmp                  0                       # Class of executed instruction
system.cpu0.op_class::SimdFloatCvt                  0                       # Class of executed instruction
system.cpu0.op_class::SimdFloatDiv                  0                       # Class of executed instruction
system.cpu0.op_class::SimdFloatMisc                 0                       # Class of executed instruction
system.cpu0.op_class::SimdFloatMult                 0                       # Class of executed instruction
system.cpu0.op_class::SimdFloatMultAcc              0                       # Class of executed instruction
system.cpu0.op_class::SimdFloatSqrt                 0                       # Class of executed instruction
system.cpu0.op_class::MemRead                       0                       # Class of executed instruction
system.cpu0.op_class::MemWrite                      0                       # Class of executed instruction
system.cpu0.op_class::IprAccess                     0                       # Class of executed instruction
system.cpu0.op_class::InstPrefetch                  0                       # Class of executed instruction
system.cpu0.op_class::total                         0                       # Class of executed instruction
system.cpu0.kern.inst.arm                           0                       # number of arm instructions executed
system.cpu0.kern.inst.quiesce                       3                       # number of quiesce instructions executed
system.cpu0.kern.inst.hwrei                       597                       # number of hwrei instructions executed
system.cpu0.kern.ipl_count::0                     168     46.28%     46.28% # number of times we switched to this ipl
system.cpu0.kern.ipl_count::22                      1      0.28%     46.56% # number of times we switched to this ipl
system.cpu0.kern.ipl_count::30                      1      0.28%     46.83% # number of times we switched to this ipl
system.cpu0.kern.ipl_count::31                    193     53.17%    100.00% # number of times we switched to this ipl
system.cpu0.kern.ipl_count::total                 363                       # number of times we switched to this ipl
system.cpu0.kern.ipl_good::0                      168     49.85%     49.85% # number of times we switched to this ipl from a different ipl
system.cpu0.kern.ipl_good::22                       1      0.30%     50.15% # number of times we switched to this ipl from a different ipl
system.cpu0.kern.ipl_good::30                       1      0.30%     50.45% # number of times we switched to this ipl from a different ipl
system.cpu0.kern.ipl_good::31                     167     49.55%    100.00% # number of times we switched to this ipl from a different ipl
system.cpu0.kern.ipl_good::total                  337                       # number of times we switched to this ipl from a different ipl
system.cpu0.kern.ipl_ticks::0               495071000     88.40%     88.40% # number of cycles we spent at this ipl
system.cpu0.kern.ipl_ticks::22                 935500      0.17%     88.57% # number of cycles we spent at this ipl
system.cpu0.kern.ipl_ticks::30                1628500      0.29%     88.86% # number of cycles we spent at this ipl
system.cpu0.kern.ipl_ticks::31               62372000     11.14%    100.00% # number of cycles we spent at this ipl
system.cpu0.kern.ipl_ticks::total           560007000                       # number of cycles we spent at this ipl
system.cpu0.kern.ipl_used::0                        1                       # fraction of swpipl calls that actually changed the ipl
system.cpu0.kern.ipl_used::22                       1                       # fraction of swpipl calls that actually changed the ipl
system.cpu0.kern.ipl_used::30                       1                       # fraction of swpipl calls that actually changed the ipl
system.cpu0.kern.ipl_used::31                0.865285                       # fraction of swpipl calls that actually changed the ipl
system.cpu0.kern.ipl_used::total             0.928375                       # fraction of swpipl calls that actually changed the ipl
system.cpu0.kern.syscall::2                         1     33.33%     33.33% # number of syscalls executed
system.cpu0.kern.syscall::3                         1     33.33%     66.67% # number of syscalls executed
system.cpu0.kern.syscall::19                        1     33.33%    100.00% # number of syscalls executed
system.cpu0.kern.syscall::total                     3                       # number of syscalls executed
system.cpu0.kern.callpal::wripir                    1      0.26%      0.26% # number of callpals executed
system.cpu0.kern.callpal::swpctx                   12      3.08%      3.34% # number of callpals executed
system.cpu0.kern.callpal::tbi                       2      0.51%      3.86% # number of callpals executed
system.cpu0.kern.callpal::swpipl                  342     87.92%     91.77% # number of callpals executed
system.cpu0.kern.callpal::rdps                      2      0.51%     92.29% # number of callpals executed
system.cpu0.kern.callpal::rdusp                     1      0.26%     92.54% # number of callpals executed
system.cpu0.kern.callpal::rti                      19      4.88%     97.43% # number of callpals executed
system.cpu0.kern.callpal::callsys                   9      2.31%     99.74% # number of callpals executed
system.cpu0.kern.callpal::imb                       1      0.26%    100.00% # number of callpals executed
system.cpu0.kern.callpal::total                   389                       # number of callpals executed
system.cpu0.kern.mode_switch::kernel               32                       # number of protection mode switches
system.cpu0.kern.mode_switch::user                 17                       # number of protection mode switches
system.cpu0.kern.mode_switch::idle                  0                       # number of protection mode switches
system.cpu0.kern.mode_good::kernel                 18                      
system.cpu0.kern.mode_good::user                   17                      
system.cpu0.kern.mode_good::idle                    0                      
system.cpu0.kern.mode_switch_good::kernel     0.562500                       # fraction of useful protection mode switches
system.cpu0.kern.mode_switch_good::user             1                       # fraction of useful protection mode switches
system.cpu0.kern.mode_switch_good::idle           nan                       # fraction of useful protection mode switches
system.cpu0.kern.mode_switch_good::total     0.714286                       # fraction of useful protection mode switches
system.cpu0.kern.mode_ticks::kernel         241556500     73.66%     73.66% # number of ticks spent at the given mode
system.cpu0.kern.mode_ticks::user            86399500     26.34%    100.00% # number of ticks spent at the given mode
system.cpu0.kern.mode_ticks::idle                   0      0.00%    100.00% # number of ticks spent at the given mode
system.cpu0.kern.swap_context                      12                       # number of times the context was actually changed
system.cpu0.dcache.tags.replacements             4864                       # number of replacements
system.cpu0.dcache.tags.tagsinuse          504.059110                       # Cycle average of tags in use
system.cpu0.dcache.tags.total_refs              55669                       # Total number of references to valid blocks.
system.cpu0.dcache.tags.sampled_refs             4864                       # Sample count of references to valid blocks.
system.cpu0.dcache.tags.avg_refs            11.445107                       # Average number of references to valid blocks.
system.cpu0.dcache.tags.warmup_cycle                0                       # Cycle when the warmup percentage was hit.
system.cpu0.dcache.tags.occ_blocks::cpu0.data    24.765444                       # Average occupied blocks per requestor
system.cpu0.dcache.tags.occ_blocks::switch_cpus0.data   479.293666                       # Average occupied blocks per requestor
system.cpu0.dcache.tags.occ_percent::cpu0.data     0.048370                       # Average percentage of cache occupancy
system.cpu0.dcache.tags.occ_percent::switch_cpus0.data     0.936120                       # Average percentage of cache occupancy
system.cpu0.dcache.tags.occ_percent::total     0.984490                       # Average percentage of cache occupancy
system.cpu0.dcache.tags.occ_task_id_blocks::1024          499                       # Occupied blocks per task id
system.cpu0.dcache.tags.age_task_id_blocks_1024::2          490                       # Occupied blocks per task id
system.cpu0.dcache.tags.age_task_id_blocks_1024::3            9                       # Occupied blocks per task id
system.cpu0.dcache.tags.occ_task_id_percent::1024     0.974609                       # Percentage of cache occupancy per task id
system.cpu0.dcache.tags.tag_accesses           291259                       # Number of tag accesses
system.cpu0.dcache.tags.data_accesses          291259                       # Number of data accesses
system.cpu0.dcache.ReadReq_hits::switch_cpus0.data        33212                       # number of ReadReq hits
system.cpu0.dcache.ReadReq_hits::total          33212                       # number of ReadReq hits
system.cpu0.dcache.WriteReq_hits::switch_cpus0.data        13603                       # number of WriteReq hits
system.cpu0.dcache.WriteReq_hits::total         13603                       # number of WriteReq hits
system.cpu0.dcache.LoadLockedReq_hits::switch_cpus0.data          538                       # number of LoadLockedReq hits
system.cpu0.dcache.LoadLockedReq_hits::total          538                       # number of LoadLockedReq hits
system.cpu0.dcache.StoreCondReq_hits::switch_cpus0.data          595                       # number of StoreCondReq hits
system.cpu0.dcache.StoreCondReq_hits::total          595                       # number of StoreCondReq hits
system.cpu0.dcache.demand_hits::switch_cpus0.data        46815                       # number of demand (read+write) hits
system.cpu0.dcache.demand_hits::total           46815                       # number of demand (read+write) hits
system.cpu0.dcache.overall_hits::switch_cpus0.data        46815                       # number of overall hits
system.cpu0.dcache.overall_hits::total          46815                       # number of overall hits
system.cpu0.dcache.ReadReq_misses::switch_cpus0.data         8963                       # number of ReadReq misses
system.cpu0.dcache.ReadReq_misses::total         8963                       # number of ReadReq misses
system.cpu0.dcache.WriteReq_misses::switch_cpus0.data        14492                       # number of WriteReq misses
system.cpu0.dcache.WriteReq_misses::total        14492                       # number of WriteReq misses
system.cpu0.dcache.LoadLockedReq_misses::switch_cpus0.data          157                       # number of LoadLockedReq misses
system.cpu0.dcache.LoadLockedReq_misses::total          157                       # number of LoadLockedReq misses
system.cpu0.dcache.StoreCondReq_misses::switch_cpus0.data           26                       # number of StoreCondReq misses
system.cpu0.dcache.StoreCondReq_misses::total           26                       # number of StoreCondReq misses
system.cpu0.dcache.demand_misses::switch_cpus0.data        23455                       # number of demand (read+write) misses
system.cpu0.dcache.demand_misses::total         23455                       # number of demand (read+write) misses
system.cpu0.dcache.overall_misses::switch_cpus0.data        23455                       # number of overall misses
system.cpu0.dcache.overall_misses::total        23455                       # number of overall misses
system.cpu0.dcache.ReadReq_miss_latency::switch_cpus0.data    526328638                       # number of ReadReq miss cycles
system.cpu0.dcache.ReadReq_miss_latency::total    526328638                       # number of ReadReq miss cycles
system.cpu0.dcache.WriteReq_miss_latency::switch_cpus0.data   1101396233                       # number of WriteReq miss cycles
system.cpu0.dcache.WriteReq_miss_latency::total   1101396233                       # number of WriteReq miss cycles
system.cpu0.dcache.LoadLockedReq_miss_latency::switch_cpus0.data     11036247                       # number of LoadLockedReq miss cycles
system.cpu0.dcache.LoadLockedReq_miss_latency::total     11036247                       # number of LoadLockedReq miss cycles
system.cpu0.dcache.StoreCondReq_miss_latency::switch_cpus0.data       245005                       # number of StoreCondReq miss cycles
system.cpu0.dcache.StoreCondReq_miss_latency::total       245005                       # number of StoreCondReq miss cycles
system.cpu0.dcache.StoreCondFailReq_miss_latency::switch_cpus0.data        21500                       # number of StoreCondFailReq miss cycles
system.cpu0.dcache.StoreCondFailReq_miss_latency::total        21500                       # number of StoreCondFailReq miss cycles
system.cpu0.dcache.demand_miss_latency::switch_cpus0.data   1627724871                       # number of demand (read+write) miss cycles
system.cpu0.dcache.demand_miss_latency::total   1627724871                       # number of demand (read+write) miss cycles
system.cpu0.dcache.overall_miss_latency::switch_cpus0.data   1627724871                       # number of overall miss cycles
system.cpu0.dcache.overall_miss_latency::total   1627724871                       # number of overall miss cycles
system.cpu0.dcache.ReadReq_accesses::switch_cpus0.data        42175                       # number of ReadReq accesses(hits+misses)
system.cpu0.dcache.ReadReq_accesses::total        42175                       # number of ReadReq accesses(hits+misses)
system.cpu0.dcache.WriteReq_accesses::switch_cpus0.data        28095                       # number of WriteReq accesses(hits+misses)
system.cpu0.dcache.WriteReq_accesses::total        28095                       # number of WriteReq accesses(hits+misses)
system.cpu0.dcache.LoadLockedReq_accesses::switch_cpus0.data          695                       # number of LoadLockedReq accesses(hits+misses)
system.cpu0.dcache.LoadLockedReq_accesses::total          695                       # number of LoadLockedReq accesses(hits+misses)
system.cpu0.dcache.StoreCondReq_accesses::switch_cpus0.data          621                       # number of StoreCondReq accesses(hits+misses)
system.cpu0.dcache.StoreCondReq_accesses::total          621                       # number of StoreCondReq accesses(hits+misses)
system.cpu0.dcache.demand_accesses::switch_cpus0.data        70270                       # number of demand (read+write) accesses
system.cpu0.dcache.demand_accesses::total        70270                       # number of demand (read+write) accesses
system.cpu0.dcache.overall_accesses::switch_cpus0.data        70270                       # number of overall (read+write) accesses
system.cpu0.dcache.overall_accesses::total        70270                       # number of overall (read+write) accesses
system.cpu0.dcache.ReadReq_miss_rate::switch_cpus0.data     0.212519                       # miss rate for ReadReq accesses
system.cpu0.dcache.ReadReq_miss_rate::total     0.212519                       # miss rate for ReadReq accesses
system.cpu0.dcache.WriteReq_miss_rate::switch_cpus0.data     0.515821                       # miss rate for WriteReq accesses
system.cpu0.dcache.WriteReq_miss_rate::total     0.515821                       # miss rate for WriteReq accesses
system.cpu0.dcache.LoadLockedReq_miss_rate::switch_cpus0.data     0.225899                       # miss rate for LoadLockedReq accesses
system.cpu0.dcache.LoadLockedReq_miss_rate::total     0.225899                       # miss rate for LoadLockedReq accesses
system.cpu0.dcache.StoreCondReq_miss_rate::switch_cpus0.data     0.041868                       # miss rate for StoreCondReq accesses
system.cpu0.dcache.StoreCondReq_miss_rate::total     0.041868                       # miss rate for StoreCondReq accesses
system.cpu0.dcache.demand_miss_rate::switch_cpus0.data     0.333784                       # miss rate for demand accesses
system.cpu0.dcache.demand_miss_rate::total     0.333784                       # miss rate for demand accesses
system.cpu0.dcache.overall_miss_rate::switch_cpus0.data     0.333784                       # miss rate for overall accesses
system.cpu0.dcache.overall_miss_rate::total     0.333784                       # miss rate for overall accesses
system.cpu0.dcache.ReadReq_avg_miss_latency::switch_cpus0.data 58722.373982                       # average ReadReq miss latency
system.cpu0.dcache.ReadReq_avg_miss_latency::total 58722.373982                       # average ReadReq miss latency
system.cpu0.dcache.WriteReq_avg_miss_latency::switch_cpus0.data 76000.292092                       # average WriteReq miss latency
system.cpu0.dcache.WriteReq_avg_miss_latency::total 76000.292092                       # average WriteReq miss latency
system.cpu0.dcache.LoadLockedReq_avg_miss_latency::switch_cpus0.data 70294.566879                       # average LoadLockedReq miss latency
system.cpu0.dcache.LoadLockedReq_avg_miss_latency::total 70294.566879                       # average LoadLockedReq miss latency
system.cpu0.dcache.StoreCondReq_avg_miss_latency::switch_cpus0.data  9423.269231                       # average StoreCondReq miss latency
system.cpu0.dcache.StoreCondReq_avg_miss_latency::total  9423.269231                       # average StoreCondReq miss latency
system.cpu0.dcache.StoreCondFailReq_avg_miss_latency::switch_cpus0.data          inf                       # average StoreCondFailReq miss latency
system.cpu0.dcache.StoreCondFailReq_avg_miss_latency::total          inf                       # average StoreCondFailReq miss latency
system.cpu0.dcache.demand_avg_miss_latency::switch_cpus0.data 69397.777489                       # average overall miss latency
system.cpu0.dcache.demand_avg_miss_latency::total 69397.777489                       # average overall miss latency
system.cpu0.dcache.overall_avg_miss_latency::switch_cpus0.data 69397.777489                       # average overall miss latency
system.cpu0.dcache.overall_avg_miss_latency::total 69397.777489                       # average overall miss latency
system.cpu0.dcache.blocked_cycles::no_mshrs        94010                       # number of cycles access was blocked
system.cpu0.dcache.blocked_cycles::no_targets          213                       # number of cycles access was blocked
system.cpu0.dcache.blocked::no_mshrs             1996                       # number of cycles access was blocked
system.cpu0.dcache.blocked::no_targets              5                       # number of cycles access was blocked
system.cpu0.dcache.avg_blocked_cycles::no_mshrs    47.099198                       # average number of cycles each access was blocked
system.cpu0.dcache.avg_blocked_cycles::no_targets    42.600000                       # average number of cycles each access was blocked
system.cpu0.dcache.fast_writes                      0                       # number of fast writes performed
system.cpu0.dcache.cache_copies                     0                       # number of cache copies performed
system.cpu0.dcache.writebacks::writebacks         2797                       # number of writebacks
system.cpu0.dcache.writebacks::total             2797                       # number of writebacks
system.cpu0.dcache.ReadReq_mshr_hits::switch_cpus0.data         6162                       # number of ReadReq MSHR hits
system.cpu0.dcache.ReadReq_mshr_hits::total         6162                       # number of ReadReq MSHR hits
system.cpu0.dcache.WriteReq_mshr_hits::switch_cpus0.data        12408                       # number of WriteReq MSHR hits
system.cpu0.dcache.WriteReq_mshr_hits::total        12408                       # number of WriteReq MSHR hits
system.cpu0.dcache.LoadLockedReq_mshr_hits::switch_cpus0.data           57                       # number of LoadLockedReq MSHR hits
system.cpu0.dcache.LoadLockedReq_mshr_hits::total           57                       # number of LoadLockedReq MSHR hits
system.cpu0.dcache.demand_mshr_hits::switch_cpus0.data        18570                       # number of demand (read+write) MSHR hits
system.cpu0.dcache.demand_mshr_hits::total        18570                       # number of demand (read+write) MSHR hits
system.cpu0.dcache.overall_mshr_hits::switch_cpus0.data        18570                       # number of overall MSHR hits
system.cpu0.dcache.overall_mshr_hits::total        18570                       # number of overall MSHR hits
system.cpu0.dcache.ReadReq_mshr_misses::switch_cpus0.data         2801                       # number of ReadReq MSHR misses
system.cpu0.dcache.ReadReq_mshr_misses::total         2801                       # number of ReadReq MSHR misses
system.cpu0.dcache.WriteReq_mshr_misses::switch_cpus0.data         2084                       # number of WriteReq MSHR misses
system.cpu0.dcache.WriteReq_mshr_misses::total         2084                       # number of WriteReq MSHR misses
system.cpu0.dcache.LoadLockedReq_mshr_misses::switch_cpus0.data          100                       # number of LoadLockedReq MSHR misses
system.cpu0.dcache.LoadLockedReq_mshr_misses::total          100                       # number of LoadLockedReq MSHR misses
system.cpu0.dcache.StoreCondReq_mshr_misses::switch_cpus0.data           26                       # number of StoreCondReq MSHR misses
system.cpu0.dcache.StoreCondReq_mshr_misses::total           26                       # number of StoreCondReq MSHR misses
system.cpu0.dcache.demand_mshr_misses::switch_cpus0.data         4885                       # number of demand (read+write) MSHR misses
system.cpu0.dcache.demand_mshr_misses::total         4885                       # number of demand (read+write) MSHR misses
system.cpu0.dcache.overall_mshr_misses::switch_cpus0.data         4885                       # number of overall MSHR misses
system.cpu0.dcache.overall_mshr_misses::total         4885                       # number of overall MSHR misses
system.cpu0.dcache.WriteReq_mshr_uncacheable::switch_cpus0.data            3                       # number of WriteReq MSHR uncacheable
system.cpu0.dcache.WriteReq_mshr_uncacheable::total            3                       # number of WriteReq MSHR uncacheable
system.cpu0.dcache.overall_mshr_uncacheable_misses::switch_cpus0.data            3                       # number of overall MSHR uncacheable misses
system.cpu0.dcache.overall_mshr_uncacheable_misses::total            3                       # number of overall MSHR uncacheable misses
system.cpu0.dcache.ReadReq_mshr_miss_latency::switch_cpus0.data    195057534                       # number of ReadReq MSHR miss cycles
system.cpu0.dcache.ReadReq_mshr_miss_latency::total    195057534                       # number of ReadReq MSHR miss cycles
system.cpu0.dcache.WriteReq_mshr_miss_latency::switch_cpus0.data    175904282                       # number of WriteReq MSHR miss cycles
system.cpu0.dcache.WriteReq_mshr_miss_latency::total    175904282                       # number of WriteReq MSHR miss cycles
system.cpu0.dcache.LoadLockedReq_mshr_miss_latency::switch_cpus0.data      7509253                       # number of LoadLockedReq MSHR miss cycles
system.cpu0.dcache.LoadLockedReq_mshr_miss_latency::total      7509253                       # number of LoadLockedReq MSHR miss cycles
system.cpu0.dcache.StoreCondReq_mshr_miss_latency::switch_cpus0.data       208995                       # number of StoreCondReq MSHR miss cycles
system.cpu0.dcache.StoreCondReq_mshr_miss_latency::total       208995                       # number of StoreCondReq MSHR miss cycles
system.cpu0.dcache.StoreCondFailReq_mshr_miss_latency::switch_cpus0.data        18500                       # number of StoreCondFailReq MSHR miss cycles
system.cpu0.dcache.StoreCondFailReq_mshr_miss_latency::total        18500                       # number of StoreCondFailReq MSHR miss cycles
system.cpu0.dcache.demand_mshr_miss_latency::switch_cpus0.data    370961816                       # number of demand (read+write) MSHR miss cycles
system.cpu0.dcache.demand_mshr_miss_latency::total    370961816                       # number of demand (read+write) MSHR miss cycles
system.cpu0.dcache.overall_mshr_miss_latency::switch_cpus0.data    370961816                       # number of overall MSHR miss cycles
system.cpu0.dcache.overall_mshr_miss_latency::total    370961816                       # number of overall MSHR miss cycles
system.cpu0.dcache.WriteReq_mshr_uncacheable_latency::switch_cpus0.data       671000                       # number of WriteReq MSHR uncacheable cycles
system.cpu0.dcache.WriteReq_mshr_uncacheable_latency::total       671000                       # number of WriteReq MSHR uncacheable cycles
system.cpu0.dcache.overall_mshr_uncacheable_latency::switch_cpus0.data       671000                       # number of overall MSHR uncacheable cycles
system.cpu0.dcache.overall_mshr_uncacheable_latency::total       671000                       # number of overall MSHR uncacheable cycles
system.cpu0.dcache.ReadReq_mshr_miss_rate::switch_cpus0.data     0.066414                       # mshr miss rate for ReadReq accesses
system.cpu0.dcache.ReadReq_mshr_miss_rate::total     0.066414                       # mshr miss rate for ReadReq accesses
system.cpu0.dcache.WriteReq_mshr_miss_rate::switch_cpus0.data     0.074177                       # mshr miss rate for WriteReq accesses
system.cpu0.dcache.WriteReq_mshr_miss_rate::total     0.074177                       # mshr miss rate for WriteReq accesses
system.cpu0.dcache.LoadLockedReq_mshr_miss_rate::switch_cpus0.data     0.143885                       # mshr miss rate for LoadLockedReq accesses
system.cpu0.dcache.LoadLockedReq_mshr_miss_rate::total     0.143885                       # mshr miss rate for LoadLockedReq accesses
system.cpu0.dcache.StoreCondReq_mshr_miss_rate::switch_cpus0.data     0.041868                       # mshr miss rate for StoreCondReq accesses
system.cpu0.dcache.StoreCondReq_mshr_miss_rate::total     0.041868                       # mshr miss rate for StoreCondReq accesses
system.cpu0.dcache.demand_mshr_miss_rate::switch_cpus0.data     0.069518                       # mshr miss rate for demand accesses
system.cpu0.dcache.demand_mshr_miss_rate::total     0.069518                       # mshr miss rate for demand accesses
system.cpu0.dcache.overall_mshr_miss_rate::switch_cpus0.data     0.069518                       # mshr miss rate for overall accesses
system.cpu0.dcache.overall_mshr_miss_rate::total     0.069518                       # mshr miss rate for overall accesses
system.cpu0.dcache.ReadReq_avg_mshr_miss_latency::switch_cpus0.data 69638.534095                       # average ReadReq mshr miss latency
system.cpu0.dcache.ReadReq_avg_mshr_miss_latency::total 69638.534095                       # average ReadReq mshr miss latency
system.cpu0.dcache.WriteReq_avg_mshr_miss_latency::switch_cpus0.data 84407.045106                       # average WriteReq mshr miss latency
system.cpu0.dcache.WriteReq_avg_mshr_miss_latency::total 84407.045106                       # average WriteReq mshr miss latency
system.cpu0.dcache.LoadLockedReq_avg_mshr_miss_latency::switch_cpus0.data 75092.530000                       # average LoadLockedReq mshr miss latency
system.cpu0.dcache.LoadLockedReq_avg_mshr_miss_latency::total 75092.530000                       # average LoadLockedReq mshr miss latency
system.cpu0.dcache.StoreCondReq_avg_mshr_miss_latency::switch_cpus0.data  8038.269231                       # average StoreCondReq mshr miss latency
system.cpu0.dcache.StoreCondReq_avg_mshr_miss_latency::total  8038.269231                       # average StoreCondReq mshr miss latency
system.cpu0.dcache.StoreCondFailReq_avg_mshr_miss_latency::switch_cpus0.data          inf                       # average StoreCondFailReq mshr miss latency
system.cpu0.dcache.StoreCondFailReq_avg_mshr_miss_latency::total          inf                       # average StoreCondFailReq mshr miss latency
system.cpu0.dcache.demand_avg_mshr_miss_latency::switch_cpus0.data 75938.959263                       # average overall mshr miss latency
system.cpu0.dcache.demand_avg_mshr_miss_latency::total 75938.959263                       # average overall mshr miss latency
system.cpu0.dcache.overall_avg_mshr_miss_latency::switch_cpus0.data 75938.959263                       # average overall mshr miss latency
system.cpu0.dcache.overall_avg_mshr_miss_latency::total 75938.959263                       # average overall mshr miss latency
system.cpu0.dcache.WriteReq_avg_mshr_uncacheable_latency::switch_cpus0.data 223666.666667                       # average WriteReq mshr uncacheable latency
system.cpu0.dcache.WriteReq_avg_mshr_uncacheable_latency::total 223666.666667                       # average WriteReq mshr uncacheable latency
system.cpu0.dcache.overall_avg_mshr_uncacheable_latency::switch_cpus0.data 223666.666667                       # average overall mshr uncacheable latency
system.cpu0.dcache.overall_avg_mshr_uncacheable_latency::total 223666.666667                       # average overall mshr uncacheable latency
system.cpu0.dcache.no_allocate_misses               0                       # Number of misses that were no-allocate
system.cpu0.icache.tags.replacements             3526                       # number of replacements
system.cpu0.icache.tags.tagsinuse          511.675449                       # Cycle average of tags in use
system.cpu0.icache.tags.total_refs             261034                       # Total number of references to valid blocks.
system.cpu0.icache.tags.sampled_refs             3526                       # Sample count of references to valid blocks.
system.cpu0.icache.tags.avg_refs            74.031197                       # Average number of references to valid blocks.
system.cpu0.icache.tags.warmup_cycle                0                       # Cycle when the warmup percentage was hit.
system.cpu0.icache.tags.occ_blocks::cpu0.inst    19.908826                       # Average occupied blocks per requestor
system.cpu0.icache.tags.occ_blocks::switch_cpus0.inst   491.766623                       # Average occupied blocks per requestor
system.cpu0.icache.tags.occ_percent::cpu0.inst     0.038884                       # Average percentage of cache occupancy
system.cpu0.icache.tags.occ_percent::switch_cpus0.inst     0.960482                       # Average percentage of cache occupancy
system.cpu0.icache.tags.occ_percent::total     0.999366                       # Average percentage of cache occupancy
system.cpu0.icache.tags.occ_task_id_blocks::1024          512                       # Occupied blocks per task id
system.cpu0.icache.tags.age_task_id_blocks_1024::2          467                       # Occupied blocks per task id
system.cpu0.icache.tags.age_task_id_blocks_1024::3           45                       # Occupied blocks per task id
system.cpu0.icache.tags.occ_task_id_percent::1024            1                       # Percentage of cache occupancy per task id
system.cpu0.icache.tags.tag_accesses            86662                       # Number of tag accesses
system.cpu0.icache.tags.data_accesses           86662                       # Number of data accesses
system.cpu0.icache.ReadReq_hits::switch_cpus0.inst        37230                       # number of ReadReq hits
system.cpu0.icache.ReadReq_hits::total          37230                       # number of ReadReq hits
system.cpu0.icache.demand_hits::switch_cpus0.inst        37230                       # number of demand (read+write) hits
system.cpu0.icache.demand_hits::total           37230                       # number of demand (read+write) hits
system.cpu0.icache.overall_hits::switch_cpus0.inst        37230                       # number of overall hits
system.cpu0.icache.overall_hits::total          37230                       # number of overall hits
system.cpu0.icache.ReadReq_misses::switch_cpus0.inst         4335                       # number of ReadReq misses
system.cpu0.icache.ReadReq_misses::total         4335                       # number of ReadReq misses
system.cpu0.icache.demand_misses::switch_cpus0.inst         4335                       # number of demand (read+write) misses
system.cpu0.icache.demand_misses::total          4335                       # number of demand (read+write) misses
[...]
system.switch_cpus3.fp_regfile_reads             5982                       # number of floating regfile reads
system.switch_cpus3.fp_regfile_writes            4926                       # number of floating regfile writes
system.switch_cpus3.misc_regfile_reads          80353                       # number of misc regfile reads
system.switch_cpus3.misc_regfile_writes         21351                       # number of misc regfile writes
system.tol2bus.trans_dist::ReadReq             197753                       # Transaction distribution
system.tol2bus.trans_dist::ReadResp            197751                       # Transaction distribution
system.tol2bus.trans_dist::WriteReq               355                       # Transaction distribution
system.tol2bus.trans_dist::WriteResp              355                       # Transaction distribution
system.tol2bus.trans_dist::Writeback            67048                       # Transaction distribution
system.tol2bus.trans_dist::WriteInvalidateReq         1920                       # Transaction distribution
system.tol2bus.trans_dist::UpgradeReq            5410                       # Transaction distribution
system.tol2bus.trans_dist::SCUpgradeReq          4732                       # Transaction distribution
system.tol2bus.trans_dist::UpgradeResp          10142                       # Transaction distribution
system.tol2bus.trans_dist::SCUpgradeFailReq           17                       # Transaction distribution
system.tol2bus.trans_dist::UpgradeFailResp           17                       # Transaction distribution
system.tol2bus.trans_dist::ReadExReq            25163                       # Transaction distribution
system.tol2bus.trans_dist::ReadExResp           25171                       # Transaction distribution
system.tol2bus.trans_dist::BadAddressError            1                       # Transaction distribution
system.tol2bus.pkt_count_system.cpu0.icache.mem_side::system.l2.cpu_side        58481                       # Packet count per connected master and slave (bytes)
system.tol2bus.pkt_count_system.cpu0.dcache.mem_side::system.l2.cpu_side       126507                       # Packet count per connected master and slave (bytes)
system.tol2bus.pkt_count_system.cpu1.icache.mem_side::system.l2.cpu_side        23206                       # Packet count per connected master and slave (bytes)
system.tol2bus.pkt_count_system.cpu1.dcache.mem_side::system.l2.cpu_side        25586                       # Packet count per connected master and slave (bytes)
system.tol2bus.pkt_count_system.cpu2.icache.mem_side::system.l2.cpu_side        56969                       # Packet count per connected master and slave (bytes)
system.tol2bus.pkt_count_system.cpu2.dcache.mem_side::system.l2.cpu_side       136627                       # Packet count per connected master and slave (bytes)
system.tol2bus.pkt_count_system.cpu3.icache.mem_side::system.l2.cpu_side        44632                       # Packet count per connected master and slave (bytes)
system.tol2bus.pkt_count_system.cpu3.dcache.mem_side::system.l2.cpu_side        42442                       # Packet count per connected master and slave (bytes)
system.tol2bus.pkt_count::total                514450                       # Packet count per connected master and slave (bytes)
system.tol2bus.pkt_size_system.cpu0.icache.mem_side::system.l2.cpu_side      1870656                       # Cumulative packet size per connected master and slave (bytes)
system.tol2bus.pkt_size_system.cpu0.dcache.mem_side::system.l2.cpu_side      4416479                       # Cumulative packet size per connected master and slave (bytes)
system.tol2bus.pkt_size_system.cpu1.icache.mem_side::system.l2.cpu_side       742272                       # Cumulative packet size per connected master and slave (bytes)
system.tol2bus.pkt_size_system.cpu1.dcache.mem_side::system.l2.cpu_side       851080                       # Cumulative packet size per connected master and slave (bytes)
system.tol2bus.pkt_size_system.cpu2.icache.mem_side::system.l2.cpu_side      1822592                       # Cumulative packet size per connected master and slave (bytes)
system.tol2bus.pkt_size_system.cpu2.dcache.mem_side::system.l2.cpu_side      5268686                       # Cumulative packet size per connected master and slave (bytes)
system.tol2bus.pkt_size_system.cpu3.icache.mem_side::system.l2.cpu_side      1428160                       # Cumulative packet size per connected master and slave (bytes)
system.tol2bus.pkt_size_system.cpu3.dcache.mem_side::system.l2.cpu_side      1396760                       # Cumulative packet size per connected master and slave (bytes)
system.tol2bus.pkt_size::total               17796685                       # Cumulative packet size per connected master and slave (bytes)
system.tol2bus.snoops                           21385                       # Total snoops (count)
system.tol2bus.snoop_fanout::samples           302398                       # Request fanout histogram
system.tol2bus.snoop_fanout::mean            7.006359                       # Request fanout histogram
system.tol2bus.snoop_fanout::stdev           0.079491                       # Request fanout histogram
system.tol2bus.snoop_fanout::underflows             0      0.00%      0.00% # Request fanout histogram
system.tol2bus.snoop_fanout::0                      0      0.00%      0.00% # Request fanout histogram
system.tol2bus.snoop_fanout::1                      0      0.00%      0.00% # Request fanout histogram
system.tol2bus.snoop_fanout::2                      0      0.00%      0.00% # Request fanout histogram
system.tol2bus.snoop_fanout::3                      0      0.00%      0.00% # Request fanout histogram
system.tol2bus.snoop_fanout::4                      0      0.00%      0.00% # Request fanout histogram
system.tol2bus.snoop_fanout::5                      0      0.00%      0.00% # Request fanout histogram
system.tol2bus.snoop_fanout::6                      0      0.00%      0.00% # Request fanout histogram
system.tol2bus.snoop_fanout::7                 300475     99.36%     99.36% # Request fanout histogram
system.tol2bus.snoop_fanout::8                   1923      0.64%    100.00% # Request fanout histogram
system.tol2bus.snoop_fanout::overflows              0      0.00%    100.00% # Request fanout histogram
system.tol2bus.snoop_fanout::min_value              7                       # Request fanout histogram
system.tol2bus.snoop_fanout::max_value              8                       # Request fanout histogram
system.tol2bus.snoop_fanout::total             302398                       # Request fanout histogram
system.tol2bus.reqLayer0.occupancy          217480465                       # Layer occupancy (ticks)
system.tol2bus.reqLayer0.utilization              1.3                       # Layer utilization (%)
system.tol2bus.respLayer0.occupancy          45734909                       # Layer occupancy (ticks)
system.tol2bus.respLayer0.utilization             0.3                       # Layer utilization (%)
system.tol2bus.respLayer1.occupancy          88362422                       # Layer occupancy (ticks)
system.tol2bus.respLayer1.utilization             0.5                       # Layer utilization (%)
system.tol2bus.respLayer2.occupancy          18103601                       # Layer occupancy (ticks)
system.tol2bus.respLayer2.utilization             0.1                       # Layer utilization (%)
system.tol2bus.respLayer3.occupancy          17129123                       # Layer occupancy (ticks)
system.tol2bus.respLayer3.utilization             0.1                       # Layer utilization (%)
system.tol2bus.respLayer4.occupancy          45003807                       # Layer occupancy (ticks)
system.tol2bus.respLayer4.utilization             0.3                       # Layer utilization (%)
system.tol2bus.respLayer5.occupancy          83956498                       # Layer occupancy (ticks)
system.tol2bus.respLayer5.utilization             0.5                       # Layer utilization (%)
system.tol2bus.respLayer6.occupancy          34262160                       # Layer occupancy (ticks)
system.tol2bus.respLayer6.utilization             0.2                       # Layer utilization (%)
system.tol2bus.respLayer7.occupancy          28086384                       # Layer occupancy (ticks)
system.tol2bus.respLayer7.utilization             0.2                       # Layer utilization (%)
system.tsunami.ethernet.descDMAReads                0                       # Number of descriptors the device read w/ DMA
system.tsunami.ethernet.descDMAWrites               0                       # Number of descriptors the device wrote w/ DMA
system.tsunami.ethernet.descDmaReadBytes            0                       # number of descriptor bytes read w/ DMA
system.tsunami.ethernet.descDmaWriteBytes            0                       # number of descriptor bytes write w/ DMA
system.tsunami.ethernet.postedSwi                   0                       # number of software interrupts posted to CPU
system.tsunami.ethernet.coalescedSwi              nan                       # average number of Swi's coalesced into each post
system.tsunami.ethernet.totalSwi                    0                       # total number of Swi written to ISR
system.tsunami.ethernet.postedRxIdle                0                       # number of rxIdle interrupts posted to CPU
system.tsunami.ethernet.coalescedRxIdle           nan                       # average number of RxIdle's coalesced into each post
system.tsunami.ethernet.totalRxIdle                 0                       # total number of RxIdle written to ISR
system.tsunami.ethernet.postedRxOk                  0                       # number of RxOk interrupts posted to CPU
system.tsunami.ethernet.coalescedRxOk             nan                       # average number of RxOk's coalesced into each post
system.tsunami.ethernet.totalRxOk                   0                       # total number of RxOk written to ISR
system.tsunami.ethernet.postedRxDesc                0                       # number of RxDesc interrupts posted to CPU
system.tsunami.ethernet.coalescedRxDesc           nan                       # average number of RxDesc's coalesced into each post
system.tsunami.ethernet.totalRxDesc                 0                       # total number of RxDesc written to ISR
system.tsunami.ethernet.postedTxOk                  0                       # number of TxOk interrupts posted to CPU
system.tsunami.ethernet.coalescedTxOk             nan                       # average number of TxOk's coalesced into each post
system.tsunami.ethernet.totalTxOk                   0                       # total number of TxOk written to ISR
system.tsunami.ethernet.postedTxIdle                0                       # number of TxIdle interrupts posted to CPU
system.tsunami.ethernet.coalescedTxIdle           nan                       # average number of TxIdle's coalesced into each post
system.tsunami.ethernet.totalTxIdle                 0                       # total number of TxIdle written to ISR
system.tsunami.ethernet.postedTxDesc                0                       # number of TxDesc interrupts posted to CPU
system.tsunami.ethernet.coalescedTxDesc           nan                       # average number of TxDesc's coalesced into each post
system.tsunami.ethernet.totalTxDesc                 0                       # total number of TxDesc written to ISR
system.tsunami.ethernet.postedRxOrn                 0                       # number of RxOrn posted to CPU
system.tsunami.ethernet.coalescedRxOrn            nan                       # average number of RxOrn's coalesced into each post
system.tsunami.ethernet.totalRxOrn                  0                       # total number of RxOrn written to ISR
system.tsunami.ethernet.coalescedTotal            nan                       # average number of interrupts coalesced into each post
system.tsunami.ethernet.postedInterrupts            0                       # number of posts to CPU
system.tsunami.ethernet.droppedPackets              0                       # number of packets dropped
system.switch_cpus0.kern.inst.arm                   0                       # number of arm instructions executed
system.switch_cpus0.kern.inst.quiesce               0                       # number of quiesce instructions executed
system.switch_cpus0.kern.inst.hwrei                 0                       # number of hwrei instructions executed
system.switch_cpus0.kern.mode_switch::kernel            0                       # number of protection mode switches
system.switch_cpus0.kern.mode_switch::user            0                       # number of protection mode switches
system.switch_cpus0.kern.mode_switch::idle            0                       # number of protection mode switches
system.switch_cpus0.kern.mode_good::kernel            0                      
system.switch_cpus0.kern.mode_good::user            0                      
system.switch_cpus0.kern.mode_good::idle            0                      
system.switch_cpus0.kern.mode_switch_good::kernel          nan                       # fraction of useful protection mode switches
system.switch_cpus0.kern.mode_switch_good::user          nan                       # fraction of useful protection mode switches
system.switch_cpus0.kern.mode_switch_good::idle          nan                       # fraction of useful protection mode switches
system.switch_cpus0.kern.mode_switch_good::total          nan                       # fraction of useful protection mode switches
system.switch_cpus0.kern.mode_ticks::kernel            0                       # number of ticks spent at the given mode
system.switch_cpus0.kern.mode_ticks::user            0                       # number of ticks spent at the given mode
system.switch_cpus0.kern.mode_ticks::idle            0                       # number of ticks spent at the given mode
system.switch_cpus0.kern.swap_context               0                       # number of times the context was actually changed
system.switch_cpus1.kern.inst.arm                   0                       # number of arm instructions executed
system.switch_cpus1.kern.inst.quiesce               0                       # number of quiesce instructions executed
system.switch_cpus1.kern.inst.hwrei                 0                       # number of hwrei instructions executed
system.switch_cpus1.kern.mode_switch::kernel            0                       # number of protection mode switches
system.switch_cpus1.kern.mode_switch::user            0                       # number of protection mode switches
system.switch_cpus1.kern.mode_switch::idle            0                       # number of protection mode switches
system.switch_cpus1.kern.mode_good::kernel            0                      
system.switch_cpus1.kern.mode_good::user            0                      
system.switch_cpus1.kern.mode_good::idle            0                      
system.switch_cpus1.kern.mode_switch_good::kernel          nan                       # fraction of useful protection mode switches
system.switch_cpus1.kern.mode_switch_good::user          nan                       # fraction of useful protection mode switches
system.switch_cpus1.kern.mode_switch_good::idle          nan                       # fraction of useful protection mode switches
system.switch_cpus1.kern.mode_switch_good::total          nan                       # fraction of useful protection mode switches
system.switch_cpus1.kern.mode_ticks::kernel            0                       # number of ticks spent at the given mode
system.switch_cpus1.kern.mode_ticks::user            0                       # number of ticks spent at the given mode
system.switch_cpus1.kern.mode_ticks::idle            0                       # number of ticks spent at the given mode
system.switch_cpus1.kern.swap_context               0                       # number of times the context was actually changed
system.switch_cpus2.kern.inst.arm                   0                       # number of arm instructions executed
system.switch_cpus2.kern.inst.quiesce               0                       # number of quiesce instructions executed
system.switch_cpus2.kern.inst.hwrei                 0                       # number of hwrei instructions executed
system.switch_cpus2.kern.mode_switch::kernel            0                       # number of protection mode switches
system.switch_cpus2.kern.mode_switch::user            0                       # number of protection mode switches
system.switch_cpus2.kern.mode_switch::idle            0                       # number of protection mode switches
system.switch_cpus2.kern.mode_good::kernel            0                      
system.switch_cpus2.kern.mode_good::user            0                      
system.switch_cpus2.kern.mode_good::idle            0                      
system.switch_cpus2.kern.mode_switch_good::kernel          nan                       # fraction of useful protection mode switches
system.switch_cpus2.kern.mode_switch_good::user          nan                       # fraction of useful protection mode switches
system.switch_cpus2.kern.mode_switch_good::idle          nan                       # fraction of useful protection mode switches
system.switch_cpus2.kern.mode_switch_good::total          nan                       # fraction of useful protection mode switches
system.switch_cpus2.kern.mode_ticks::kernel            0                       # number of ticks spent at the given mode
system.switch_cpus2.kern.mode_ticks::user            0                       # number of ticks spent at the given mode
system.switch_cpus2.kern.mode_ticks::idle            0                       # number of ticks spent at the given mode
system.switch_cpus2.kern.swap_context               0                       # number of times the context was actually changed
system.switch_cpus3.kern.inst.arm                   0                       # number of arm instructions executed
system.switch_cpus3.kern.inst.quiesce               0                       # number of quiesce instructions executed
system.switch_cpus3.kern.inst.hwrei                 0                       # number of hwrei instructions executed
system.switch_cpus3.kern.mode_switch::kernel            0                       # number of protection mode switches
system.switch_cpus3.kern.mode_switch::user            0                       # number of protection mode switches
system.switch_cpus3.kern.mode_switch::idle            0                       # number of protection mode switches
system.switch_cpus3.kern.mode_good::kernel            0                      
system.switch_cpus3.kern.mode_good::user            0                      
system.switch_cpus3.kern.mode_good::idle            0                      
system.switch_cpus3.kern.mode_switch_good::kernel          nan                       # fraction of useful protection mode switches
system.switch_cpus3.kern.mode_switch_good::user          nan                       # fraction of useful protection mode switches
system.switch_cpus3.kern.mode_switch_good::idle          nan                       # fraction of useful protection mode switches
system.switch_cpus3.kern.mode_switch_good::total          nan                       # fraction of useful protection mode switches
system.switch_cpus3.kern.mode_ticks::kernel            0                       # number of ticks spent at the given mode
system.switch_cpus3.kern.mode_ticks::user            0                       # number of ticks spent at the given mode
system.switch_cpus3.kern.mode_ticks::idle            0                       # number of ticks spent at the given mode
system.switch_cpus3.kern.swap_context               0                       # number of times the context was actually changed

---------- End Simulation Statistics   ----------
