
---------- Begin Simulation Statistics ----------
sim_seconds                                  0.000667                       # Number of seconds simulated
sim_ticks                                   667208000                       # Number of ticks simulated
final_tick                               2255106870500                       # Number of ticks from beginning of simulation (restored from checkpoints and never reset)
sim_freq                                 1000000000000                       # Frequency of simulated ticks
host_inst_rate                               40743895                       # Simulator instruction rate (inst/s)
host_op_rate                                 40743754                       # Simulator op (including micro ops) rate (op/s)
host_tick_rate                              277440299                       # Simulator tick rate (ticks/s)
host_mem_usage                                 729004                       # Number of bytes of host memory used
host_seconds                                     2.40                       # Real time elapsed on the host
sim_insts                                    97983159                       # Number of instructions simulated
sim_ops                                      97983159                       # Number of ops (including micro ops) simulated
system.voltage_domain.voltage                       1                       # Voltage in Volts
system.clk_domain.clock                          1000                       # Clock period in ticks
system.mem_ctrls.bytes_read::switch_cpus.inst       112000                       # Number of bytes read from this memory
system.mem_ctrls.bytes_read::switch_cpus.data       232320                       # Number of bytes read from this memory
system.mem_ctrls.bytes_read::total             344320                       # Number of bytes read from this memory
system.mem_ctrls.bytes_inst_read::switch_cpus.inst       112000                       # Number of instructions bytes read from this memory
system.mem_ctrls.bytes_inst_read::total        112000                       # Number of instructions bytes read from this memory
system.mem_ctrls.bytes_written::writebacks       157440                       # Number of bytes written to this memory
system.mem_ctrls.bytes_written::total          157440                       # Number of bytes written to this memory
system.mem_ctrls.num_reads::switch_cpus.inst         1750                       # Number of read requests responded to by this memory
system.mem_ctrls.num_reads::switch_cpus.data         3630                       # Number of read requests responded to by this memory
system.mem_ctrls.num_reads::total                5380                       # Number of read requests responded to by this memory
system.mem_ctrls.num_writes::writebacks          2460                       # Number of write requests responded to by this memory
system.mem_ctrls.num_writes::total               2460                       # Number of write requests responded to by this memory
system.mem_ctrls.bw_read::switch_cpus.inst    167863695                       # Total read bandwidth from this memory (bytes/s)
system.mem_ctrls.bw_read::switch_cpus.data    348197264                       # Total read bandwidth from this memory (bytes/s)
system.mem_ctrls.bw_read::total             516060959                       # Total read bandwidth from this memory (bytes/s)
system.mem_ctrls.bw_inst_read::switch_cpus.inst    167863695                       # Instruction read bandwidth from this memory (bytes/s)
system.mem_ctrls.bw_inst_read::total        167863695                       # Instruction read bandwidth from this memory (bytes/s)
system.mem_ctrls.bw_write::writebacks       235968394                       # Write bandwidth from this memory (bytes/s)
system.mem_ctrls.bw_write::total            235968394                       # Write bandwidth from this memory (bytes/s)
system.mem_ctrls.bw_total::writebacks       235968394                       # Total bandwidth to/from this memory (bytes/s)
system.mem_ctrls.bw_total::switch_cpus.inst    167863695                       # Total bandwidth to/from this memory (bytes/s)
system.mem_ctrls.bw_total::switch_cpus.data    348197264                       # Total bandwidth to/from this memory (bytes/s)
system.mem_ctrls.bw_total::total            752029352                       # Total bandwidth to/from this memory (bytes/s)
system.mem_ctrls.readReqs                        5380                       # Number of read requests accepted
system.mem_ctrls.writeReqs                       2460                       # Number of write requests accepted
system.mem_ctrls.readBursts                      5380                       # Number of DRAM read bursts, including those serviced by the write queue
system.mem_ctrls.writeBursts                     2460                       # Number of DRAM write bursts, including those merged in the write queue
system.mem_ctrls.bytesReadDRAM                 342528                       # Total number of bytes read from DRAM
system.mem_ctrls.bytesReadWrQ                    1792                       # Total number of bytes read from write queue
system.mem_ctrls.bytesWritten                  155584                       # Total number of bytes written to DRAM
system.mem_ctrls.bytesReadSys                  344320                       # Total read bytes from the system interface side
system.mem_ctrls.bytesWrittenSys               157440                       # Total written bytes from the system interface side
system.mem_ctrls.servicedByWrQ                     28                       # Number of DRAM read bursts serviced by the write queue
system.mem_ctrls.mergedWrBursts                     0                       # Number of DRAM write bursts merged with an existing one
system.mem_ctrls.neitherReadNorWriteReqs            0                       # Number of requests that are neither read nor write
system.mem_ctrls.perBankRdBursts::0               528                       # Per bank write bursts
system.mem_ctrls.perBankRdBursts::1               187                       # Per bank write bursts
system.mem_ctrls.perBankRdBursts::2               293                       # Per bank write bursts
system.mem_ctrls.perBankRdBursts::3               456                       # Per bank write bursts
system.mem_ctrls.perBankRdBursts::4               113                       # Per bank write bursts
system.mem_ctrls.perBankRdBursts::5               471                       # Per bank write bursts
system.mem_ctrls.perBankRdBursts::6               209                       # Per bank write bursts
system.mem_ctrls.perBankRdBursts::7               307                       # Per bank write bursts
system.mem_ctrls.perBankRdBursts::8               410                       # Per bank write bursts
system.mem_ctrls.perBankRdBursts::9               227                       # Per bank write bursts
system.mem_ctrls.perBankRdBursts::10              402                       # Per bank write bursts
system.mem_ctrls.perBankRdBursts::11              613                       # Per bank write bursts
system.mem_ctrls.perBankRdBursts::12              145                       # Per bank write bursts
system.mem_ctrls.perBankRdBursts::13              566                       # Per bank write bursts
system.mem_ctrls.perBankRdBursts::14              221                       # Per bank write bursts
system.mem_ctrls.perBankRdBursts::15              204                       # Per bank write bursts
system.mem_ctrls.perBankWrBursts::0               110                       # Per bank write bursts
system.mem_ctrls.perBankWrBursts::1                81                       # Per bank write bursts
system.mem_ctrls.perBankWrBursts::2               148                       # Per bank write bursts
system.mem_ctrls.perBankWrBursts::3               430                       # Per bank write bursts
system.mem_ctrls.perBankWrBursts::4                50                       # Per bank write bursts
system.mem_ctrls.perBankWrBursts::5               422                       # Per bank write bursts
system.mem_ctrls.perBankWrBursts::6                97                       # Per bank write bursts
system.mem_ctrls.perBankWrBursts::7               143                       # Per bank write bursts
system.mem_ctrls.perBankWrBursts::8               253                       # Per bank write bursts
system.mem_ctrls.perBankWrBursts::9                89                       # Per bank write bursts
system.mem_ctrls.perBankWrBursts::10              157                       # Per bank write bursts
system.mem_ctrls.perBankWrBursts::11              125                       # Per bank write bursts
system.mem_ctrls.perBankWrBursts::12               34                       # Per bank write bursts
system.mem_ctrls.perBankWrBursts::13              139                       # Per bank write bursts
system.mem_ctrls.perBankWrBursts::14               67                       # Per bank write bursts
system.mem_ctrls.perBankWrBursts::15               86                       # Per bank write bursts
system.mem_ctrls.numRdRetry                         0                       # Number of times read queue was full causing retry
system.mem_ctrls.numWrRetry                         0                       # Number of times write queue was full causing retry
system.mem_ctrls.totGap                     666808500                       # Total gap between requests
system.mem_ctrls.readPktSize::0                     0                       # Read request sizes (log2)
system.mem_ctrls.readPktSize::1                     0                       # Read request sizes (log2)
system.mem_ctrls.readPktSize::2                     0                       # Read request sizes (log2)
system.mem_ctrls.readPktSize::3                     0                       # Read request sizes (log2)
system.mem_ctrls.readPktSize::4                     0                       # Read request sizes (log2)
system.mem_ctrls.readPktSize::5                     0                       # Read request sizes (log2)
system.mem_ctrls.readPktSize::6                  5380                       # Read request sizes (log2)
system.mem_ctrls.writePktSize::0                    0                       # Write request sizes (log2)
system.mem_ctrls.writePktSize::1                    0                       # Write request sizes (log2)
system.mem_ctrls.writePktSize::2                    0                       # Write request sizes (log2)
system.mem_ctrls.writePktSize::3                    0                       # Write request sizes (log2)
system.mem_ctrls.writePktSize::4                    0                       # Write request sizes (log2)
system.mem_ctrls.writePktSize::5                    0                       # Write request sizes (log2)
system.mem_ctrls.writePktSize::6                 2460                       # Write request sizes (log2)
system.mem_ctrls.rdQLenPdf::0                    3332                       # What read queue length does an incoming req see
system.mem_ctrls.rdQLenPdf::1                    1277                       # What read queue length does an incoming req see
system.mem_ctrls.rdQLenPdf::2                     511                       # What read queue length does an incoming req see
system.mem_ctrls.rdQLenPdf::3                     232                       # What read queue length does an incoming req see
system.mem_ctrls.rdQLenPdf::4                       0                       # What read queue length does an incoming req see
system.mem_ctrls.rdQLenPdf::5                       0                       # What read queue length does an incoming req see
system.mem_ctrls.rdQLenPdf::6                       0                       # What read queue length does an incoming req see
system.mem_ctrls.rdQLenPdf::7                       0                       # What read queue length does an incoming req see
system.mem_ctrls.rdQLenPdf::8                       0                       # What read queue length does an incoming req see
system.mem_ctrls.rdQLenPdf::9                       0                       # What read queue length does an incoming req see
system.mem_ctrls.rdQLenPdf::10                      0                       # What read queue length does an incoming req see
system.mem_ctrls.rdQLenPdf::11                      0                       # What read queue length does an incoming req see
system.mem_ctrls.rdQLenPdf::12                      0                       # What read queue length does an incoming req see
system.mem_ctrls.rdQLenPdf::13                      0                       # What read queue length does an incoming req see
system.mem_ctrls.rdQLenPdf::14                      0                       # What read queue length does an incoming req see
system.mem_ctrls.rdQLenPdf::15                      0                       # What read queue length does an incoming req see
system.mem_ctrls.rdQLenPdf::16                      0                       # What read queue length does an incoming req see
system.mem_ctrls.rdQLenPdf::17                      0                       # What read queue length does an incoming req see
system.mem_ctrls.rdQLenPdf::18                      0                       # What read queue length does an incoming req see
system.mem_ctrls.rdQLenPdf::19                      0                       # What read queue length does an incoming req see
system.mem_ctrls.rdQLenPdf::20                      0                       # What read queue length does an incoming req see
system.mem_ctrls.rdQLenPdf::21                      0                       # What read queue length does an incoming req see
system.mem_ctrls.rdQLenPdf::22                      0                       # What read queue length does an incoming req see
system.mem_ctrls.rdQLenPdf::23                      0                       # What read queue length does an incoming req see
system.mem_ctrls.rdQLenPdf::24                      0                       # What read queue length does an incoming req see
system.mem_ctrls.rdQLenPdf::25                      0                       # What read queue length does an incoming req see
system.mem_ctrls.rdQLenPdf::26                      0                       # What read queue length does an incoming req see
system.mem_ctrls.rdQLenPdf::27                      0                       # What read queue length does an incoming req see
system.mem_ctrls.rdQLenPdf::28                      0                       # What read queue length does an incoming req see
system.mem_ctrls.rdQLenPdf::29                      0                       # What read queue length does an incoming req see
system.mem_ctrls.rdQLenPdf::30                      0                       # What read queue length does an incoming req see
system.mem_ctrls.rdQLenPdf::31                      0                       # What read queue length does an incoming req see
system.mem_ctrls.wrQLenPdf::0                       1                       # What write queue length does an incoming req see
system.mem_ctrls.wrQLenPdf::1                       1                       # What write queue length does an incoming req see
system.mem_ctrls.wrQLenPdf::2                       1                       # What write queue length does an incoming req see
system.mem_ctrls.wrQLenPdf::3                       1                       # What write queue length does an incoming req see
system.mem_ctrls.wrQLenPdf::4                       1                       # What write queue length does an incoming req see
system.mem_ctrls.wrQLenPdf::5                       1                       # What write queue length does an incoming req see
system.mem_ctrls.wrQLenPdf::6                       1                       # What write queue length does an incoming req see
system.mem_ctrls.wrQLenPdf::7                       1                       # What write queue length does an incoming req see
system.mem_ctrls.wrQLenPdf::8                       1                       # What write queue length does an incoming req see
system.mem_ctrls.wrQLenPdf::9                       1                       # What write queue length does an incoming req see
system.mem_ctrls.wrQLenPdf::10                      1                       # What write queue length does an incoming req see
system.mem_ctrls.wrQLenPdf::11                      1                       # What write queue length does an incoming req see
system.mem_ctrls.wrQLenPdf::12                      1                       # What write queue length does an incoming req see
system.mem_ctrls.wrQLenPdf::13                      1                       # What write queue length does an incoming req see
system.mem_ctrls.wrQLenPdf::14                      1                       # What write queue length does an incoming req see
system.mem_ctrls.wrQLenPdf::15                     33                       # What write queue length does an incoming req see
system.mem_ctrls.wrQLenPdf::16                     36                       # What write queue length does an incoming req see
system.mem_ctrls.wrQLenPdf::17                     97                       # What write queue length does an incoming req see
system.mem_ctrls.wrQLenPdf::18                    133                       # What write queue length does an incoming req see
system.mem_ctrls.wrQLenPdf::19                    146                       # What write queue length does an incoming req see
system.mem_ctrls.wrQLenPdf::20                    147                       # What write queue length does an incoming req see
system.mem_ctrls.wrQLenPdf::21                    153                       # What write queue length does an incoming req see
system.mem_ctrls.wrQLenPdf::22                    150                       # What write queue length does an incoming req see
system.mem_ctrls.wrQLenPdf::23                    154                       # What write queue length does an incoming req see
system.mem_ctrls.wrQLenPdf::24                    153                       # What write queue length does an incoming req see
system.mem_ctrls.wrQLenPdf::25                    152                       # What write queue length does an incoming req see
system.mem_ctrls.wrQLenPdf::26                    167                       # What write queue length does an incoming req see
system.mem_ctrls.wrQLenPdf::27                    153                       # What write queue length does an incoming req see
system.mem_ctrls.wrQLenPdf::28                    159                       # What write queue length does an incoming req see
system.mem_ctrls.wrQLenPdf::29                    168                       # What write queue length does an incoming req see
system.mem_ctrls.wrQLenPdf::30                    150                       # What write queue length does an incoming req see
system.mem_ctrls.wrQLenPdf::31                    147                       # What write queue length does an incoming req see
system.mem_ctrls.wrQLenPdf::32                    147                       # What write queue length does an incoming req see
system.mem_ctrls.wrQLenPdf::33                      0                       # What write queue length does an incoming req see
system.mem_ctrls.wrQLenPdf::34                      0                       # What write queue length does an incoming req see
system.mem_ctrls.wrQLenPdf::35                      0                       # What write queue length does an incoming req see
system.mem_ctrls.wrQLenPdf::36                      0                       # What write queue length does an incoming req see
system.mem_ctrls.wrQLenPdf::37                      0                       # What write queue length does an incoming req see
system.mem_ctrls.wrQLenPdf::38                      0                       # What write queue length does an incoming req see
system.mem_ctrls.wrQLenPdf::39                      0                       # What write queue length does an incoming req see
system.mem_ctrls.wrQLenPdf::40                      0                       # What write queue length does an incoming req see
system.mem_ctrls.wrQLenPdf::41                      0                       # What write queue length does an incoming req see
system.mem_ctrls.wrQLenPdf::42                      0                       # What write queue length does an incoming req see
system.mem_ctrls.wrQLenPdf::43                      0                       # What write queue length does an incoming req see
system.mem_ctrls.wrQLenPdf::44                      0                       # What write queue length does an incoming req see
system.mem_ctrls.wrQLenPdf::45                      0                       # What write queue length does an incoming req see
system.mem_ctrls.wrQLenPdf::46                      0                       # What write queue length does an incoming req see
system.mem_ctrls.wrQLenPdf::47                      0                       # What write queue length does an incoming req see
system.mem_ctrls.wrQLenPdf::48                      0                       # What write queue length does an incoming req see
system.mem_ctrls.wrQLenPdf::49                      0                       # What write queue length does an incoming req see
system.mem_ctrls.wrQLenPdf::50                      0                       # What write queue length does an incoming req see
system.mem_ctrls.wrQLenPdf::51                      0                       # What write queue length does an incoming req see
system.mem_ctrls.wrQLenPdf::52                      0                       # What write queue length does an incoming req see
system.mem_ctrls.wrQLenPdf::53                      0                       # What write queue length does an incoming req see
system.mem_ctrls.wrQLenPdf::54                      0                       # What write queue length does an incoming req see
system.mem_ctrls.wrQLenPdf::55                      0                       # What write queue length does an incoming req see
system.mem_ctrls.wrQLenPdf::56                      0                       # What write queue length does an incoming req see
system.mem_ctrls.wrQLenPdf::57                      0                       # What write queue length does an incoming req see
system.mem_ctrls.wrQLenPdf::58                      0                       # What write queue length does an incoming req see
system.mem_ctrls.wrQLenPdf::59                      0                       # What write queue length does an incoming req see
system.mem_ctrls.wrQLenPdf::60                      0                       # What write queue length does an incoming req see
system.mem_ctrls.wrQLenPdf::61                      0                       # What write queue length does an incoming req see
system.mem_ctrls.wrQLenPdf::62                      0                       # What write queue length does an incoming req see
system.mem_ctrls.wrQLenPdf::63                      0                       # What write queue length does an incoming req see
system.mem_ctrls.bytesPerActivate::samples         2073                       # Bytes accessed per row activation
system.mem_ctrls.bytesPerActivate::mean    239.915099                       # Bytes accessed per row activation
system.mem_ctrls.bytesPerActivate::gmean   146.911410                       # Bytes accessed per row activation
system.mem_ctrls.bytesPerActivate::stdev   277.591615                       # Bytes accessed per row activation
system.mem_ctrls.bytesPerActivate::0-127          922     44.48%     44.48% # Bytes accessed per row activation
system.mem_ctrls.bytesPerActivate::128-255          545     26.29%     70.77% # Bytes accessed per row activation
system.mem_ctrls.bytesPerActivate::256-383          196      9.45%     80.22% # Bytes accessed per row activation
system.mem_ctrls.bytesPerActivate::384-511          102      4.92%     85.14% # Bytes accessed per row activation
system.mem_ctrls.bytesPerActivate::512-639           68      3.28%     88.42% # Bytes accessed per row activation
system.mem_ctrls.bytesPerActivate::640-767           44      2.12%     90.55% # Bytes accessed per row activation
system.mem_ctrls.bytesPerActivate::768-895           29      1.40%     91.94% # Bytes accessed per row activation
system.mem_ctrls.bytesPerActivate::896-1023           23      1.11%     93.05% # Bytes accessed per row activation
system.mem_ctrls.bytesPerActivate::1024-1151          144      6.95%    100.00% # Bytes accessed per row activation
system.mem_ctrls.bytesPerActivate::total         2073                       # Bytes accessed per row activation
system.mem_ctrls.rdPerTurnAround::samples          147                       # Reads before turning the bus around for writes
system.mem_ctrls.rdPerTurnAround::mean      36.224490                       # Reads before turning the bus around for writes
system.mem_ctrls.rdPerTurnAround::gmean     30.817312                       # Reads before turning the bus around for writes
system.mem_ctrls.rdPerTurnAround::stdev     24.584435                       # Reads before turning the bus around for writes
system.mem_ctrls.rdPerTurnAround::0-7               1      0.68%      0.68% # Reads before turning the bus around for writes
system.mem_ctrls.rdPerTurnAround::8-15              7      4.76%      5.44% # Reads before turning the bus around for writes
system.mem_ctrls.rdPerTurnAround::16-23            42     28.57%     34.01% # Reads before turning the bus around for writes
system.mem_ctrls.rdPerTurnAround::24-31            30     20.41%     54.42% # Reads before turning the bus around for writes
system.mem_ctrls.rdPerTurnAround::32-39            20     13.61%     68.03% # Reads before turning the bus around for writes
system.mem_ctrls.rdPerTurnAround::40-47            16     10.88%     78.91% # Reads before turning the bus around for writes
system.mem_ctrls.rdPerTurnAround::48-55            14      9.52%     88.44% # Reads before turning the bus around for writes
system.mem_ctrls.rdPerTurnAround::56-63             4      2.72%     91.16% # Reads before turning the bus around for writes
system.mem_ctrls.rdPerTurnAround::64-71             4      2.72%     93.88% # Reads before turning the bus around for writes
system.mem_ctrls.rdPerTurnAround::72-79             1      0.68%     94.56% # Reads before turning the bus around for writes
system.mem_ctrls.rdPerTurnAround::80-87             1      0.68%     95.24% # Reads before turning the bus around for writes
system.mem_ctrls.rdPerTurnAround::88-95             1      0.68%     95.92% # Reads before turning the bus around for writes
system.mem_ctrls.rdPerTurnAround::96-103            1      0.68%     96.60% # Reads before turning the bus around for writes
system.mem_ctrls.rdPerTurnAround::104-111            1      0.68%     97.28% # Reads before turning the bus around for writes
system.mem_ctrls.rdPerTurnAround::112-119            1      0.68%     97.96% # Reads before turning the bus around for writes
system.mem_ctrls.rdPerTurnAround::128-135            1      0.68%     98.64% # Reads before turning the bus around for writes
system.mem_ctrls.rdPerTurnAround::136-143            1      0.68%     99.32% # Reads before turning the bus around for writes
system.mem_ctrls.rdPerTurnAround::160-167            1      0.68%    100.00% # Reads before turning the bus around for writes
system.mem_ctrls.rdPerTurnAround::total           147                       # Reads before turning the bus around for writes
system.mem_ctrls.wrPerTurnAround::samples          147                       # Writes before turning the bus around for reads
system.mem_ctrls.wrPerTurnAround::mean      16.537415                       # Writes before turning the bus around for reads
system.mem_ctrls.wrPerTurnAround::gmean     16.508291                       # Writes before turning the bus around for reads
system.mem_ctrls.wrPerTurnAround::stdev      1.015443                       # Writes before turning the bus around for reads
system.mem_ctrls.wrPerTurnAround::16              112     76.19%     76.19% # Writes before turning the bus around for reads
system.mem_ctrls.wrPerTurnAround::17                2      1.36%     77.55% # Writes before turning the bus around for reads
system.mem_ctrls.wrPerTurnAround::18               24     16.33%     93.88% # Writes before turning the bus around for reads
system.mem_ctrls.wrPerTurnAround::19                7      4.76%     98.64% # Writes before turning the bus around for reads
system.mem_ctrls.wrPerTurnAround::20                2      1.36%    100.00% # Writes before turning the bus around for reads
system.mem_ctrls.wrPerTurnAround::total           147                       # Writes before turning the bus around for reads
system.mem_ctrls.totQLat                     75032250                       # Total ticks spent queuing
system.mem_ctrls.totMemAccLat               175382250                       # Total ticks spent from burst creation until serviced by the DRAM
system.mem_ctrls.totBusLat                   26760000                       # Total ticks spent in databus transfers
system.mem_ctrls.avgQLat                     14019.48                       # Average queueing delay per DRAM burst
system.mem_ctrls.avgBusLat                    5000.00                       # Average bus latency per DRAM burst
system.mem_ctrls.avgMemAccLat                32769.48                       # Average memory access latency per DRAM burst
system.mem_ctrls.avgRdBW                       513.38                       # Average DRAM read bandwidth in MiByte/s
system.mem_ctrls.avgWrBW                       233.19                       # Average achieved write bandwidth in MiByte/s
system.mem_ctrls.avgRdBWSys                    516.06                       # Average system read bandwidth in MiByte/s
system.mem_ctrls.avgWrBWSys                    235.97                       # Average system write bandwidth in MiByte/s
system.mem_ctrls.peakBW                      12800.00                       # Theoretical peak bandwidth in MiByte/s
system.mem_ctrls.busUtil                         5.83                       # Data bus utilization in percentage
system.mem_ctrls.busUtilRead                     4.01                       # Data bus utilization in percentage for reads
system.mem_ctrls.busUtilWrite                    1.82                       # Data bus utilization in percentage for writes
system.mem_ctrls.avgRdQLen                       1.38                       # Average read queue length when enqueuing
system.mem_ctrls.avgWrQLen                      25.21                       # Average write queue length when enqueuing
system.mem_ctrls.readRowHits                     4088                       # Number of row buffer hits during reads
system.mem_ctrls.writeRowHits                    1617                       # Number of row buffer hits during writes
system.mem_ctrls.readRowHitRate                 76.38                       # Row buffer hit rate for reads
system.mem_ctrls.writeRowHitRate                65.73                       # Row buffer hit rate for writes
system.mem_ctrls.avgGap                      85052.10                       # Average gap between requests
system.mem_ctrls.pageHitRate                    73.03                       # Row buffer hit rate, read and write combined
system.mem_ctrls_0.actEnergy                  7847280                       # Energy for activate commands per rank (pJ)
system.mem_ctrls_0.preEnergy                  4281750                       # Energy for precharge commands per rank (pJ)
system.mem_ctrls_0.readEnergy                19983600                       # Energy for read commands per rank (pJ)
system.mem_ctrls_0.writeEnergy                9551520                       # Energy for write commands per rank (pJ)
system.mem_ctrls_0.refreshEnergy             43227600                       # Energy for refresh commands per rank (pJ)
system.mem_ctrls_0.actBackEnergy            371014425                       # Energy for active background per rank (pJ)
system.mem_ctrls_0.preBackEnergy             71803500                       # Energy for precharge background per rank (pJ)
system.mem_ctrls_0.totalEnergy              527709675                       # Total energy per rank (pJ)
system.mem_ctrls_0.averagePower            797.034661                       # Core power per rank (mW)
system.mem_ctrls_0.memoryStateTime::IDLE    117278500                       # Time in different power states
system.mem_ctrls_0.memoryStateTime::REF      22100000                       # Time in different power states
system.mem_ctrls_0.memoryStateTime::PRE_PDN            0                       # Time in different power states
system.mem_ctrls_0.memoryStateTime::ACT     522874000                       # Time in different power states
system.mem_ctrls_0.memoryStateTime::ACT_PDN            0                       # Time in different power states
system.mem_ctrls_1.actEnergy                  7756560                       # Energy for activate commands per rank (pJ)
system.mem_ctrls_1.preEnergy                  4232250                       # Energy for precharge commands per rank (pJ)
system.mem_ctrls_1.readEnergy                21520200                       # Energy for read commands per rank (pJ)
system.mem_ctrls_1.writeEnergy                6097680                       # Energy for write commands per rank (pJ)
system.mem_ctrls_1.refreshEnergy             43227600                       # Energy for refresh commands per rank (pJ)
system.mem_ctrls_1.actBackEnergy            394532055                       # Energy for active background per rank (pJ)
system.mem_ctrls_1.preBackEnergy             51174000                       # Energy for precharge background per rank (pJ)
system.mem_ctrls_1.totalEnergy              528540345                       # Total energy per rank (pJ)
system.mem_ctrls_1.averagePower            798.289277                       # Core power per rank (mW)
system.mem_ctrls_1.memoryStateTime::IDLE     82653250                       # Time in different power states
system.mem_ctrls_1.memoryStateTime::REF      22100000                       # Time in different power states
system.mem_ctrls_1.memoryStateTime::PRE_PDN            0                       # Time in different power states
system.mem_ctrls_1.memoryStateTime::ACT     557351750                       # Time in different power states
system.mem_ctrls_1.memoryStateTime::ACT_PDN            0                       # Time in different power states
system.cpu_voltage_domain.voltage                   1                       # Voltage in Volts
system.cpu_clk_domain.clock                       500                       # Clock period in ticks
system.cpu.dtb.fetch_hits                           0                       # ITB hits
system.cpu.dtb.fetch_misses                         0                       # ITB misses
system.cpu.dtb.fetch_acv                            0                       # ITB acv
system.cpu.dtb.fetch_accesses                       0                       # ITB accesses
system.cpu.dtb.read_hits                            0                       # DTB read hits
system.cpu.dtb.read_misses                          0                       # DTB read misses
system.cpu.dtb.read_acv                             0                       # DTB read access violations
system.cpu.dtb.read_accesses                        0                       # DTB read accesses
system.cpu.dtb.write_hits                           0                       # DTB write hits
system.cpu.dtb.write_misses                         0                       # DTB write misses
system.cpu.dtb.write_acv                            0                       # DTB write access violations
system.cpu.dtb.write_accesses                       0                       # DTB write accesses
system.cpu.dtb.data_hits                            0                       # DTB hits
system.cpu.dtb.data_misses                          0                       # DTB misses
system.cpu.dtb.data_acv                             0                       # DTB access violations
system.cpu.dtb.data_accesses                        0                       # DTB accesses
system.cpu.itb.fetch_hits                           0                       # ITB hits
system.cpu.itb.fetch_misses                         0                       # ITB misses
system.cpu.itb.fetch_acv                            0                       # ITB acv
system.cpu.itb.fetch_accesses                       0                       # ITB accesses
system.cpu.itb.read_hits                            0                       # DTB read hits
system.cpu.itb.read_misses                          0                       # DTB read misses
system.cpu.itb.read_acv                             0                       # DTB read access violations
system.cpu.itb.read_accesses                        0                       # DTB read accesses
system.cpu.itb.write_hits                           0                       # DTB write hits
system.cpu.itb.write_misses                         0                       # DTB write misses
system.cpu.itb.write_acv                            0                       # DTB write access violations
system.cpu.itb.write_accesses                       0                       # DTB write accesses
system.cpu.itb.data_hits                            0                       # DTB hits
system.cpu.itb.data_misses                          0                       # DTB misses
system.cpu.itb.data_acv                             0                       # DTB access violations
system.cpu.itb.data_accesses                        0                       # DTB accesses
system.cpu.numCycles                                0                       # number of cpu cycles simulated
system.cpu.numWorkItemsStarted                      0                       # number of work items this cpu started
system.cpu.numWorkItemsCompleted                    0                       # number of work items this cpu completed
system.cpu.committedInsts                           0                       # Number of instructions committed
system.cpu.committedOps                             0                       # Number of ops (including micro ops) committed
system.cpu.num_int_alu_accesses                     0                       # Number of integer alu accesses
system.cpu.num_fp_alu_accesses                      0                       # Number of float alu accesses
system.cpu.num_func_calls                           0                       # number of times a function call or return occured
system.cpu.num_conditional_control_insts            0                       # number of instructions that are conditional controls
system.cpu.num_int_insts                            0                       # number of integer instructions
system.cpu.num_fp_insts                             0                       # number of float instructions
system.cpu.num_int_register_reads                   0                       # number of times the integer registers were read
system.cpu.num_int_register_writes                  0                       # number of times the integer registers were written
system.cpu.num_fp_register_reads                    0                       # number of times the floating registers were read
system.cpu.num_fp_register_writes                   0                       # number of times the floating registers were written
system.cpu.num_mem_refs                             0                       # number of memory refs
system.cpu.num_load_insts                           0                       # Number of load instructions
system.cpu.num_store_insts                          0                       # Number of store instructions
system.cpu.num_idle_cycles                          0                       # Number of idle cycles
system.cpu.num_busy_cycles                          0                       # Number of busy cycles
system.cpu.not_idle_fraction                        1                       # Percentage of non-idle cycles
system.cpu.idle_fraction                            0                       # Percentage of idle cycles
system.cpu.op_class::No_OpClass                     0                       # Class of executed instruction
system.cpu.op_class::IntAlu                         0                       # Class of executed instruction
system.cpu.op_class::IntMult                        0                       # Class of executed instruction
system.cpu.op_class::IntDiv                         0                       # Class of executed instruction
system.cpu.op_class::FloatAdd                       0                       # Class of executed instruction
system.cpu.op_class::FloatCmp                       0                       # Class of executed instruction
system.cpu.op_class::FloatCvt                       0                       # Class of executed instruction
system.cpu.op_class::FloatMult                      0                       # Class of executed instruction
system.cpu.op_class::FloatDiv                       0                       # Class of executed instruction
system.cpu.op_class::FloatSqrt                      0                       # Class of executed instruction
system.cpu.op_class::SimdAdd                        0                       # Class of executed instruction
system.cpu.op_class::SimdAddAcc                     0                       # Class of executed instruction
system.cpu.op_class::SimdAlu                        0                       # Class of executed instruction
system.cpu.op_class::SimdCmp                        0                       # Class of executed instruction
system.cpu.op_class::SimdCvt                        0                       # Class of executed instruction
system.cpu.op_class::SimdMisc                       0                       # Class of executed instruction
system.cpu.op_class::SimdMult                       0                       # Class of executed instruction
system.cpu.op_class::SimdMultAcc                    0                       # Class of executed instruction
system.cpu.op_class::SimdShift                      0                       # Class of executed instruction
system.cpu.op_class::SimdShiftAcc                   0                       # Class of executed instruction
system.cpu.op_class::SimdSqrt                       0                       # Class of executed instruction
system.cpu.op_class::SimdFloatAdd                   0                       # Class of executed instruction
system.cpu.op_class::SimdFloatAlu                   0                       # Class of executed instruction
system.cpu.op_class::SimdFloatCmp                   0                       # Class of executed instruction
system.cpu.op_class::SimdFloatCvt                   0                       # Class of executed instruction
system.cpu.op_class::SimdFloatDiv                   0                       # Class of executed instruction
system.cpu.op_class::SimdFloatMisc                  0                       # Class of executed instruction
system.cpu.op_class::SimdFloatMult                  0                       # Class of executed instruction
system.cpu.op_class::SimdFloatMultAcc               0                       # Class of executed instruction
system.cpu.op_class::SimdFloatSqrt                  0                       # Class of executed instruction
system.cpu.op_class::MemRead                        0                       # Class of executed instruction
system.cpu.op_class::MemWrite                       0                       # Class of executed instruction
system.cpu.op_class::IprAccess                      0                       # Class of executed instruction
system.cpu.op_class::InstPrefetch                   0                       # Class of executed instruction
system.cpu.op_class::total                          0                       # Class of executed instruction
system.cpu.kern.inst.arm                            0                       # number of arm instructions executed
system.cpu.kern.inst.quiesce                        0                       # number of quiesce instructions executed
system.cpu.kern.inst.hwrei                       2781                       # number of hwrei instructions executed
system.cpu.kern.ipl_count::0                      635     49.15%     49.15% # number of times we switched to this ipl
system.cpu.kern.ipl_count::22                       1      0.08%     49.23% # number of times we switched to this ipl
system.cpu.kern.ipl_count::31                     656     50.77%    100.00% # number of times we switched to this ipl
system.cpu.kern.ipl_count::total                 1292                       # number of times we switched to this ipl
system.cpu.kern.ipl_good::0                       633     49.96%     49.96% # number of times we switched to this ipl from a different ipl
system.cpu.kern.ipl_good::22                        1      0.08%     50.04% # number of times we switched to this ipl from a different ipl
system.cpu.kern.ipl_good::31                      633     49.96%    100.00% # number of times we switched to this ipl from a different ipl
system.cpu.kern.ipl_good::total                  1267                       # number of times we switched to this ipl from a different ipl
system.cpu.kern.ipl_ticks::0                602555500     90.38%     90.38% # number of cycles we spent at this ipl
system.cpu.kern.ipl_ticks::22                 1216500      0.18%     90.56% # number of cycles we spent at this ipl
system.cpu.kern.ipl_ticks::31                62930500      9.44%    100.00% # number of cycles we spent at this ipl
system.cpu.kern.ipl_ticks::total            666702500                       # number of cycles we spent at this ipl
system.cpu.kern.ipl_used::0                  0.996850                       # fraction of swpipl calls that actually changed the ipl
system.cpu.kern.ipl_used::22                        1                       # fraction of swpipl calls that actually changed the ipl
system.cpu.kern.ipl_used::31                 0.964939                       # fraction of swpipl calls that actually changed the ipl
system.cpu.kern.ipl_used::total              0.980650                       # fraction of swpipl calls that actually changed the ipl
system.cpu.kern.syscall::2                          1      5.56%      5.56% # number of syscalls executed
system.cpu.kern.syscall::3                          2     11.11%     16.67% # number of syscalls executed
system.cpu.kern.syscall::6                          2     11.11%     27.78% # number of syscalls executed
system.cpu.kern.syscall::17                         1      5.56%     33.33% # number of syscalls executed
system.cpu.kern.syscall::19                         1      5.56%     38.89% # number of syscalls executed
system.cpu.kern.syscall::33                         1      5.56%     44.44% # number of syscalls executed
system.cpu.kern.syscall::45                         3     16.67%     61.11% # number of syscalls executed
system.cpu.kern.syscall::48                         1      5.56%     66.67% # number of syscalls executed
system.cpu.kern.syscall::59                         1      5.56%     72.22% # number of syscalls executed
system.cpu.kern.syscall::71                         4     22.22%     94.44% # number of syscalls executed
system.cpu.kern.syscall::74                         1      5.56%    100.00% # number of syscalls executed
system.cpu.kern.syscall::total                     18                       # number of syscalls executed
system.cpu.kern.callpal::swpctx                   118      8.10%      8.10% # number of callpals executed
system.cpu.kern.callpal::tbi                        6      0.41%      8.51% # number of callpals executed
system.cpu.kern.callpal::swpipl                  1107     75.98%     84.49% # number of callpals executed
system.cpu.kern.callpal::rdps                       3      0.21%     84.69% # number of callpals executed
system.cpu.kern.callpal::wrusp                      1      0.07%     84.76% # number of callpals executed
system.cpu.kern.callpal::rdusp                      1      0.07%     84.83% # number of callpals executed
system.cpu.kern.callpal::rti                      184     12.63%     97.46% # number of callpals executed
system.cpu.kern.callpal::callsys                   33      2.26%     99.73% # number of callpals executed
system.cpu.kern.callpal::imb                        4      0.27%    100.00% # number of callpals executed
system.cpu.kern.callpal::total                   1457                       # number of callpals executed
system.cpu.kern.mode_switch::kernel               302                       # number of protection mode switches
system.cpu.kern.mode_switch::user                 181                       # number of protection mode switches
system.cpu.kern.mode_switch::idle                   0                       # number of protection mode switches
system.cpu.kern.mode_good::kernel                 181                      
system.cpu.kern.mode_good::user                   181                      
system.cpu.kern.mode_good::idle                     0                      
system.cpu.kern.mode_switch_good::kernel     0.599338                       # fraction of useful protection mode switches
system.cpu.kern.mode_switch_good::user              1                       # fraction of useful protection mode switches
system.cpu.kern.mode_switch_good::idle            nan                       # fraction of useful protection mode switches
system.cpu.kern.mode_switch_good::total      0.749482                       # fraction of useful protection mode switches
system.cpu.kern.mode_ticks::kernel          434908500     65.23%     65.23% # number of ticks spent at the given mode
system.cpu.kern.mode_ticks::user            231787000     34.77%    100.00% # number of ticks spent at the given mode
system.cpu.kern.mode_ticks::idle                    0      0.00%    100.00% # number of ticks spent at the given mode
system.cpu.kern.swap_context                      118                       # number of times the context was actually changed
system.cpu.dcache.tags.replacements             18326                       # number of replacements
system.cpu.dcache.tags.tagsinuse                  512                       # Cycle average of tags in use
system.cpu.dcache.tags.total_refs              200324                       # Total number of references to valid blocks.
system.cpu.dcache.tags.sampled_refs             18326                       # Sample count of references to valid blocks.
system.cpu.dcache.tags.avg_refs             10.931136                       # Average number of references to valid blocks.
system.cpu.dcache.tags.warmup_cycle                 0                       # Cycle when the warmup percentage was hit.
system.cpu.dcache.tags.occ_blocks::cpu.data    25.897053                       # Average occupied blocks per requestor
system.cpu.dcache.tags.occ_blocks::switch_cpus.data   486.102947                       # Average occupied blocks per requestor
system.cpu.dcache.tags.occ_percent::cpu.data     0.050580                       # Average percentage of cache occupancy
system.cpu.dcache.tags.occ_percent::switch_cpus.data     0.949420                       # Average percentage of cache occupancy
system.cpu.dcache.tags.occ_percent::total            1                       # Average percentage of cache occupancy
system.cpu.dcache.tags.occ_task_id_blocks::1024          512                       # Occupied blocks per task id
system.cpu.dcache.tags.age_task_id_blocks_1024::0          336                       # Occupied blocks per task id
system.cpu.dcache.tags.age_task_id_blocks_1024::1          157                       # Occupied blocks per task id
system.cpu.dcache.tags.age_task_id_blocks_1024::2           19                       # Occupied blocks per task id
system.cpu.dcache.tags.occ_task_id_percent::1024            1                       # Percentage of cache occupancy per task id
system.cpu.dcache.tags.tag_accesses           1183982                       # Number of tag accesses
system.cpu.dcache.tags.data_accesses          1183982                       # Number of data accesses
system.cpu.dcache.ReadReq_hits::switch_cpus.data       133692                       # number of ReadReq hits
system.cpu.dcache.ReadReq_hits::total          133692                       # number of ReadReq hits
system.cpu.dcache.WriteReq_hits::switch_cpus.data        59276                       # number of WriteReq hits
system.cpu.dcache.WriteReq_hits::total          59276                       # number of WriteReq hits
system.cpu.dcache.LoadLockedReq_hits::switch_cpus.data         2233                       # number of LoadLockedReq hits
system.cpu.dcache.LoadLockedReq_hits::total         2233                       # number of LoadLockedReq hits
system.cpu.dcache.StoreCondReq_hits::switch_cpus.data         2379                       # number of StoreCondReq hits
system.cpu.dcache.StoreCondReq_hits::total         2379                       # number of StoreCondReq hits
system.cpu.dcache.demand_hits::switch_cpus.data       192968                       # number of demand (read+write) hits
system.cpu.dcache.demand_hits::total           192968                       # number of demand (read+write) hits
system.cpu.dcache.overall_hits::switch_cpus.data       192968                       # number of overall hits
system.cpu.dcache.overall_hits::total          192968                       # number of overall hits
system.cpu.dcache.ReadReq_misses::switch_cpus.data        26464                       # number of ReadReq misses
system.cpu.dcache.ReadReq_misses::total         26464                       # number of ReadReq misses
system.cpu.dcache.WriteReq_misses::switch_cpus.data        66973                       # number of WriteReq misses
system.cpu.dcache.WriteReq_misses::total        66973                       # number of WriteReq misses
system.cpu.dcache.LoadLockedReq_misses::switch_cpus.data          397                       # number of LoadLockedReq misses
system.cpu.dcache.LoadLockedReq_misses::total          397                       # number of LoadLockedReq misses
system.cpu.dcache.demand_misses::switch_cpus.data        93437                       # number of demand (read+write) misses
system.cpu.dcache.demand_misses::total          93437                       # number of demand (read+write) misses
system.cpu.dcache.overall_misses::switch_cpus.data        93437                       # number of overall misses
system.cpu.dcache.overall_misses::total         93437                       # number of overall misses
system.cpu.dcache.ReadReq_miss_latency::switch_cpus.data    691469491                       # number of ReadReq miss cycles
system.cpu.dcache.ReadReq_miss_latency::total    691469491                       # number of ReadReq miss cycles
system.cpu.dcache.WriteReq_miss_latency::switch_cpus.data   1840827015                       # number of WriteReq miss cycles
system.cpu.dcache.WriteReq_miss_latency::total   1840827015                       # number of WriteReq miss cycles
system.cpu.dcache.LoadLockedReq_miss_latency::switch_cpus.data      7170250                       # number of LoadLockedReq miss cycles
system.cpu.dcache.LoadLockedReq_miss_latency::total      7170250                       # number of LoadLockedReq miss cycles
system.cpu.dcache.demand_miss_latency::switch_cpus.data   2532296506                       # number of demand (read+write) miss cycles
system.cpu.dcache.demand_miss_latency::total   2532296506                       # number of demand (read+write) miss cycles
system.cpu.dcache.overall_miss_latency::switch_cpus.data   2532296506                       # number of overall miss cycles
system.cpu.dcache.overall_miss_latency::total   2532296506                       # number of overall miss cycles
system.cpu.dcache.ReadReq_accesses::switch_cpus.data       160156                       # number of ReadReq accesses(hits+misses)
system.cpu.dcache.ReadReq_accesses::total       160156                       # number of ReadReq accesses(hits+misses)
system.cpu.dcache.WriteReq_accesses::switch_cpus.data       126249                       # number of WriteReq accesses(hits+misses)
system.cpu.dcache.WriteReq_accesses::total       126249                       # number of WriteReq accesses(hits+misses)
system.cpu.dcache.LoadLockedReq_accesses::switch_cpus.data         2630                       # number of LoadLockedReq accesses(hits+misses)
system.cpu.dcache.LoadLockedReq_accesses::total         2630                       # number of LoadLockedReq accesses(hits+misses)
system.cpu.dcache.StoreCondReq_accesses::switch_cpus.data         2379                       # number of StoreCondReq accesses(hits+misses)
system.cpu.dcache.StoreCondReq_accesses::total         2379                       # number of StoreCondReq accesses(hits+misses)
system.cpu.dcache.demand_accesses::switch_cpus.data       286405                       # number of demand (read+write) accesses
system.cpu.dcache.demand_accesses::total       286405                       # number of demand (read+write) accesses
system.cpu.dcache.overall_accesses::switch_cpus.data       286405                       # number of overall (read+write) accesses
system.cpu.dcache.overall_accesses::total       286405                       # number of overall (read+write) accesses
system.cpu.dcache.ReadReq_miss_rate::switch_cpus.data     0.165239                       # miss rate for ReadReq accesses
system.cpu.dcache.ReadReq_miss_rate::total     0.165239                       # miss rate for ReadReq accesses
system.cpu.dcache.WriteReq_miss_rate::switch_cpus.data     0.530483                       # miss rate for WriteReq accesses
system.cpu.dcache.WriteReq_miss_rate::total     0.530483                       # miss rate for WriteReq accesses
system.cpu.dcache.LoadLockedReq_miss_rate::switch_cpus.data     0.150951                       # miss rate for LoadLockedReq accesses
system.cpu.dcache.LoadLockedReq_miss_rate::total     0.150951                       # miss rate for LoadLockedReq accesses
system.cpu.dcache.demand_miss_rate::switch_cpus.data     0.326241                       # miss rate for demand accesses
system.cpu.dcache.demand_miss_rate::total     0.326241                       # miss rate for demand accesses
system.cpu.dcache.overall_miss_rate::switch_cpus.data     0.326241                       # miss rate for overall accesses
system.cpu.dcache.overall_miss_rate::total     0.326241                       # miss rate for overall accesses
system.cpu.dcache.ReadReq_avg_miss_latency::switch_cpus.data 26128.683910                       # average ReadReq miss latency
system.cpu.dcache.ReadReq_avg_miss_latency::total 26128.683910                       # average ReadReq miss latency
system.cpu.dcache.WriteReq_avg_miss_latency::switch_cpus.data 27486.106565                       # average WriteReq miss latency
system.cpu.dcache.WriteReq_avg_miss_latency::total 27486.106565                       # average WriteReq miss latency
system.cpu.dcache.LoadLockedReq_avg_miss_latency::switch_cpus.data 18061.083123                       # average LoadLockedReq miss latency
system.cpu.dcache.LoadLockedReq_avg_miss_latency::total 18061.083123                       # average LoadLockedReq miss latency
system.cpu.dcache.demand_avg_miss_latency::switch_cpus.data 27101.646093                       # average overall miss latency
system.cpu.dcache.demand_avg_miss_latency::total 27101.646093                       # average overall miss latency
system.cpu.dcache.overall_avg_miss_latency::switch_cpus.data 27101.646093                       # average overall miss latency
system.cpu.dcache.overall_avg_miss_latency::total 27101.646093                       # average overall miss latency
system.cpu.dcache.blocked_cycles::no_mshrs        75604                       # number of cycles access was blocked
system.cpu.dcache.blocked_cycles::no_targets            8                       # number of cycles access was blocked
system.cpu.dcache.blocked::no_mshrs              4599                       # number of cycles access was blocked
system.cpu.dcache.blocked::no_targets               1                       # number of cycles access was blocked
system.cpu.dcache.avg_blocked_cycles::no_mshrs    16.439226                       # average number of cycles each access was blocked
system.cpu.dcache.avg_blocked_cycles::no_targets            8                       # average number of cycles each access was blocked
system.cpu.dcache.fast_writes                       0                       # number of fast writes performed
system.cpu.dcache.cache_copies                      0                       # number of cache copies performed
system.cpu.dcache.writebacks::writebacks        13034                       # number of writebacks
system.cpu.dcache.writebacks::total             13034                       # number of writebacks
system.cpu.dcache.ReadReq_mshr_hits::switch_cpus.data        17448                       # number of ReadReq MSHR hits
system.cpu.dcache.ReadReq_mshr_hits::total        17448                       # number of ReadReq MSHR hits
system.cpu.dcache.WriteReq_mshr_hits::switch_cpus.data        57883                       # number of WriteReq MSHR hits
system.cpu.dcache.WriteReq_mshr_hits::total        57883                       # number of WriteReq MSHR hits
system.cpu.dcache.LoadLockedReq_mshr_hits::switch_cpus.data          175                       # number of LoadLockedReq MSHR hits
system.cpu.dcache.LoadLockedReq_mshr_hits::total          175                       # number of LoadLockedReq MSHR hits
system.cpu.dcache.demand_mshr_hits::switch_cpus.data        75331                       # number of demand (read+write) MSHR hits
system.cpu.dcache.demand_mshr_hits::total        75331                       # number of demand (read+write) MSHR hits
system.cpu.dcache.overall_mshr_hits::switch_cpus.data        75331                       # number of overall MSHR hits
system.cpu.dcache.overall_mshr_hits::total        75331                       # number of overall MSHR hits
system.cpu.dcache.ReadReq_mshr_misses::switch_cpus.data         9016                       # number of ReadReq MSHR misses
system.cpu.dcache.ReadReq_mshr_misses::total         9016                       # number of ReadReq MSHR misses
system.cpu.dcache.WriteReq_mshr_misses::switch_cpus.data         9090                       # number of WriteReq MSHR misses
system.cpu.dcache.WriteReq_mshr_misses::total         9090                       # number of WriteReq MSHR misses
system.cpu.dcache.LoadLockedReq_mshr_misses::switch_cpus.data          222                       # number of LoadLockedReq MSHR misses
system.cpu.dcache.LoadLockedReq_mshr_misses::total          222                       # number of LoadLockedReq MSHR misses
system.cpu.dcache.demand_mshr_misses::switch_cpus.data        18106                       # number of demand (read+write) MSHR misses
system.cpu.dcache.demand_mshr_misses::total        18106                       # number of demand (read+write) MSHR misses
system.cpu.dcache.overall_mshr_misses::switch_cpus.data        18106                       # number of overall MSHR misses
system.cpu.dcache.overall_mshr_misses::total        18106                       # number of overall MSHR misses
system.cpu.dcache.WriteReq_mshr_uncacheable::switch_cpus.data            1                       # number of WriteReq MSHR uncacheable
system.cpu.dcache.WriteReq_mshr_uncacheable::total            1                       # number of WriteReq MSHR uncacheable
system.cpu.dcache.overall_mshr_uncacheable_misses::switch_cpus.data            1                       # number of overall MSHR uncacheable misses
system.cpu.dcache.overall_mshr_uncacheable_misses::total            1                       # number of overall MSHR uncacheable misses
system.cpu.dcache.ReadReq_mshr_miss_latency::switch_cpus.data    224071006                       # number of ReadReq MSHR miss cycles
system.cpu.dcache.ReadReq_mshr_miss_latency::total    224071006                       # number of ReadReq MSHR miss cycles
system.cpu.dcache.WriteReq_mshr_miss_latency::switch_cpus.data    253699554                       # number of WriteReq MSHR miss cycles
system.cpu.dcache.WriteReq_mshr_miss_latency::total    253699554                       # number of WriteReq MSHR miss cycles
system.cpu.dcache.LoadLockedReq_mshr_miss_latency::switch_cpus.data      4237250                       # number of LoadLockedReq MSHR miss cycles
system.cpu.dcache.LoadLockedReq_mshr_miss_latency::total      4237250                       # number of LoadLockedReq MSHR miss cycles
system.cpu.dcache.demand_mshr_miss_latency::switch_cpus.data    477770560                       # number of demand (read+write) MSHR miss cycles
system.cpu.dcache.demand_mshr_miss_latency::total    477770560                       # number of demand (read+write) MSHR miss cycles
system.cpu.dcache.overall_mshr_miss_latency::switch_cpus.data    477770560                       # number of overall MSHR miss cycles
system.cpu.dcache.overall_mshr_miss_latency::total    477770560                       # number of overall MSHR miss cycles
system.cpu.dcache.WriteReq_mshr_uncacheable_latency::switch_cpus.data       223500                       # number of WriteReq MSHR uncacheable cycles
system.cpu.dcache.WriteReq_mshr_uncacheable_latency::total       223500                       # number of WriteReq MSHR uncacheable cycles
system.cpu.dcache.overall_mshr_uncacheable_latency::switch_cpus.data       223500                       # number of overall MSHR uncacheable cycles
system.cpu.dcache.overall_mshr_uncacheable_latency::total       223500                       # number of overall MSHR uncacheable cycles
system.cpu.dcache.ReadReq_mshr_miss_rate::switch_cpus.data     0.056295                       # mshr miss rate for ReadReq accesses
system.cpu.dcache.ReadReq_mshr_miss_rate::total     0.056295                       # mshr miss rate for ReadReq accesses
system.cpu.dcache.WriteReq_mshr_miss_rate::switch_cpus.data     0.072001                       # mshr miss rate for WriteReq accesses
system.cpu.dcache.WriteReq_mshr_miss_rate::total     0.072001                       # mshr miss rate for WriteReq accesses
system.cpu.dcache.LoadLockedReq_mshr_miss_rate::switch_cpus.data     0.084411                       # mshr miss rate for LoadLockedReq accesses
system.cpu.dcache.LoadLockedReq_mshr_miss_rate::total     0.084411                       # mshr miss rate for LoadLockedReq accesses
system.cpu.dcache.demand_mshr_miss_rate::switch_cpus.data     0.063218                       # mshr miss rate for demand accesses
system.cpu.dcache.demand_mshr_miss_rate::total     0.063218                       # mshr miss rate for demand accesses
system.cpu.dcache.overall_mshr_miss_rate::switch_cpus.data     0.063218                       # mshr miss rate for overall accesses
system.cpu.dcache.overall_mshr_miss_rate::total     0.063218                       # mshr miss rate for overall accesses
system.cpu.dcache.ReadReq_avg_mshr_miss_latency::switch_cpus.data 24852.596051                       # average ReadReq mshr miss latency
system.cpu.dcache.ReadReq_avg_mshr_miss_latency::total 24852.596051                       # average ReadReq mshr miss latency
system.cpu.dcache.WriteReq_avg_mshr_miss_latency::switch_cpus.data 27909.741914                       # average WriteReq mshr miss latency
system.cpu.dcache.WriteReq_avg_mshr_miss_latency::total 27909.741914                       # average WriteReq mshr miss latency
system.cpu.dcache.LoadLockedReq_avg_mshr_miss_latency::switch_cpus.data 19086.711712                       # average LoadLockedReq mshr miss latency
system.cpu.dcache.LoadLockedReq_avg_mshr_miss_latency::total 19086.711712                       # average LoadLockedReq mshr miss latency
system.cpu.dcache.demand_avg_mshr_miss_latency::switch_cpus.data 26387.416326                       # average overall mshr miss latency
system.cpu.dcache.demand_avg_mshr_miss_latency::total 26387.416326                       # average overall mshr miss latency
system.cpu.dcache.overall_avg_mshr_miss_latency::switch_cpus.data 26387.416326                       # average overall mshr miss latency
system.cpu.dcache.overall_avg_mshr_miss_latency::total 26387.416326                       # average overall mshr miss latency
system.cpu.dcache.WriteReq_avg_mshr_uncacheable_latency::switch_cpus.data       223500                       # average WriteReq mshr uncacheable latency
system.cpu.dcache.WriteReq_avg_mshr_uncacheable_latency::total       223500                       # average WriteReq mshr uncacheable latency
system.cpu.dcache.overall_avg_mshr_uncacheable_latency::switch_cpus.data       223500                       # average overall mshr uncacheable latency
system.cpu.dcache.overall_avg_mshr_uncacheable_latency::total       223500                       # average overall mshr uncacheable latency
system.cpu.dcache.no_allocate_misses                0                       # Number of misses that were no-allocate
system.cpu.icache.tags.replacements             10374                       # number of replacements
system.cpu.icache.tags.tagsinuse           511.868635                       # Cycle average of tags in use
system.cpu.icache.tags.total_refs              363387                       # Total number of references to valid blocks.
system.cpu.icache.tags.sampled_refs             10374                       # Sample count of references to valid blocks.
system.cpu.icache.tags.avg_refs             35.028629                       # Average number of references to valid blocks.
system.cpu.icache.tags.warmup_cycle                 0                       # Cycle when the warmup percentage was hit.
system.cpu.icache.tags.occ_blocks::cpu.inst    22.737954                       # Average occupied blocks per requestor
system.cpu.icache.tags.occ_blocks::switch_cpus.inst   489.130682                       # Average occupied blocks per requestor
system.cpu.icache.tags.occ_percent::cpu.inst     0.044410                       # Average percentage of cache occupancy
system.cpu.icache.tags.occ_percent::switch_cpus.inst     0.955333                       # Average percentage of cache occupancy
system.cpu.icache.tags.occ_percent::total     0.999743                       # Average percentage of cache occupancy
system.cpu.icache.tags.occ_task_id_blocks::1024          511                       # Occupied blocks per task id
system.cpu.icache.tags.age_task_id_blocks_1024::0           69                       # Occupied blocks per task id
system.cpu.icache.tags.age_task_id_blocks_1024::1          104                       # Occupied blocks per task id
system.cpu.icache.tags.age_task_id_blocks_1024::2          338                       # Occupied blocks per task id
system.cpu.icache.tags.occ_task_id_percent::1024     0.998047                       # Percentage of cache occupancy per task id
system.cpu.icache.tags.tag_accesses            333861                       # Number of tag accesses
system.cpu.icache.tags.data_accesses           333861                       # Number of data accesses
system.cpu.icache.ReadReq_hits::switch_cpus.inst       149844                       # number of ReadReq hits
system.cpu.icache.ReadReq_hits::total          149844                       # number of ReadReq hits
system.cpu.icache.demand_hits::switch_cpus.inst       149844                       # number of demand (read+write) hits
system.cpu.icache.demand_hits::total           149844                       # number of demand (read+write) hits
system.cpu.icache.overall_hits::switch_cpus.inst       149844                       # number of overall hits
system.cpu.icache.overall_hits::total          149844                       # number of overall hits
system.cpu.icache.ReadReq_misses::switch_cpus.inst        11899                       # number of ReadReq misses
system.cpu.icache.ReadReq_misses::total         11899                       # number of ReadReq misses
system.cpu.icache.demand_misses::switch_cpus.inst        11899                       # number of demand (read+write) misses
system.cpu.icache.demand_misses::total          11899                       # number of demand (read+write) misses
system.cpu.icache.overall_misses::switch_cpus.inst        11899                       # number of overall misses
system.cpu.icache.overall_misses::total         11899                       # number of overall misses
system.cpu.icache.ReadReq_miss_latency::switch_cpus.inst    300264210                       # number of ReadReq miss cycles
system.cpu.icache.ReadReq_miss_latency::total    300264210                       # number of ReadReq miss cycles
system.cpu.icache.demand_miss_latency::switch_cpus.inst    300264210                       # number of demand (read+write) miss cycles
system.cpu.icache.demand_miss_latency::total    300264210                       # number of demand (read+write) miss cycles
system.cpu.icache.overall_miss_latency::switch_cpus.inst    300264210                       # number of overall miss cycles
system.cpu.icache.overall_miss_latency::total    300264210                       # number of overall miss cycles
system.cpu.icache.ReadReq_accesses::switch_cpus.inst       161743                       # number of ReadReq accesses(hits+misses)
system.cpu.icache.ReadReq_accesses::total       161743                       # number of ReadReq accesses(hits+misses)
system.cpu.icache.demand_accesses::switch_cpus.inst       161743                       # number of demand (read+write) accesses
system.cpu.icache.demand_accesses::total       161743                       # number of demand (read+write) accesses
system.cpu.icache.overall_accesses::switch_cpus.inst       161743                       # number of overall (read+write) accesses
system.cpu.icache.overall_accesses::total       161743                       # number of overall (read+write) accesses
system.cpu.icache.ReadReq_miss_rate::switch_cpus.inst     0.073567                       # miss rate for ReadReq accesses
system.cpu.icache.ReadReq_miss_rate::total     0.073567                       # miss rate for ReadReq accesses
system.cpu.icache.demand_miss_rate::switch_cpus.inst     0.073567                       # miss rate for demand accesses
system.cpu.icache.demand_miss_rate::total     0.073567                       # miss rate for demand accesses
system.cpu.icache.overall_miss_rate::switch_cpus.inst     0.073567                       # miss rate for overall accesses
system.cpu.icache.overall_miss_rate::total     0.073567                       # miss rate for overall accesses
system.cpu.icache.ReadReq_avg_miss_latency::switch_cpus.inst 25234.407093                       # average ReadReq miss latency
system.cpu.icache.ReadReq_avg_miss_latency::total 25234.407093                       # average ReadReq miss latency
system.cpu.icache.demand_avg_miss_latency::switch_cpus.inst 25234.407093                       # average overall miss latency
system.cpu.icache.demand_avg_miss_latency::total 25234.407093                       # average overall miss latency
system.cpu.icache.overall_avg_miss_latency::switch_cpus.inst 25234.407093                       # average overall miss latency
system.cpu.icache.overall_avg_miss_latency::total 25234.407093                       # average overall miss latency
system.cpu.icache.blocked_cycles::no_mshrs         1961                       # number of cycles access was blocked
system.cpu.icache.blocked_cycles::no_targets            0                       # number of cycles access was blocked
system.cpu.icache.blocked::no_mshrs                73                       # number of cycles access was blocked
system.cpu.icache.blocked::no_targets               0                       # number of cycles access was blocked
system.cpu.icache.avg_blocked_cycles::no_mshrs    26.863014                       # average number of cycles each access was blocked
system.cpu.icache.avg_blocked_cycles::no_targets          nan                       # average number of cycles each access was blocked
system.cpu.icache.fast_writes                       0                       # number of fast writes performed
system.cpu.icache.cache_copies                      0                       # number of cache copies performed
system.cpu.icache.ReadReq_mshr_hits::switch_cpus.inst         1524                       # number of ReadReq MSHR hits
system.cpu.icache.ReadReq_mshr_hits::total         1524                       # number of ReadReq MSHR hits
system.cpu.icache.demand_mshr_hits::switch_cpus.inst         1524                       # number of demand (read+write) MSHR hits
system.cpu.icache.demand_mshr_hits::total         1524                       # number of demand (read+write) MSHR hits
system.cpu.icache.overall_mshr_hits::switch_cpus.inst         1524                       # number of overall MSHR hits
system.cpu.icache.overall_mshr_hits::total         1524                       # number of overall MSHR hits
system.cpu.icache.ReadReq_mshr_misses::switch_cpus.inst        10375                       # number of ReadReq MSHR misses
system.cpu.icache.ReadReq_mshr_misses::total        10375                       # number of ReadReq MSHR misses
system.cpu.icache.demand_mshr_misses::switch_cpus.inst        10375                       # number of demand (read+write) MSHR misses
system.cpu.icache.demand_mshr_misses::total        10375                       # number of demand (read+write) MSHR misses
system.cpu.icache.overall_mshr_misses::switch_cpus.inst        10375                       # number of overall MSHR misses
system.cpu.icache.overall_mshr_misses::total        10375                       # number of overall MSHR misses
system.cpu.icache.ReadReq_mshr_miss_latency::switch_cpus.inst    241375024                       # number of ReadReq MSHR miss cycles
system.cpu.icache.ReadReq_mshr_miss_latency::total    241375024                       # number of ReadReq MSHR miss cycles
system.cpu.icache.demand_mshr_miss_latency::switch_cpus.inst    241375024                       # number of demand (read+write) MSHR miss cycles
system.cpu.icache.demand_mshr_miss_latency::total    241375024                       # number of demand (read+write) MSHR miss cycles
system.cpu.icache.overall_mshr_miss_latency::switch_cpus.inst    241375024                       # number of overall MSHR miss cycles
system.cpu.icache.overall_mshr_miss_latency::total    241375024                       # number of overall MSHR miss cycles
system.cpu.icache.ReadReq_mshr_miss_rate::switch_cpus.inst     0.064145                       # mshr miss rate for ReadReq accesses
system.cpu.icache.ReadReq_mshr_miss_rate::total     0.064145                       # mshr miss rate for ReadReq accesses
system.cpu.icache.demand_mshr_miss_rate::switch_cpus.inst     0.064145                       # mshr miss rate for demand accesses
system.cpu.icache.demand_mshr_miss_rate::total     0.064145                       # mshr miss rate for demand accesses
system.cpu.icache.overall_mshr_miss_rate::switch_cpus.inst     0.064145                       # mshr miss rate for overall accesses
system.cpu.icache.overall_mshr_miss_rate::total     0.064145                       # mshr miss rate for overall accesses
system.cpu.icache.ReadReq_avg_mshr_miss_latency::switch_cpus.inst 23265.062554                       # average ReadReq mshr miss latency
[...]
system.switch_cpus.iew.wb_rate               0.820358                       # insts written-back per cycle
system.switch_cpus.iew.wb_fanout             0.729599                       # average fanout of values written-back
system.switch_cpus.iew.wb_penalized_rate            0                       # fraction of instructions written-back that wrote to 'other' IQ
system.switch_cpus.commit.commitSquashedInsts      3363693                       # The number of squashed insts skipped by commit
system.switch_cpus.commit.commitNonSpecStalls       236649                       # The number of times commit has been forced to stall to communicate backwards
system.switch_cpus.commit.branchMispredicts       189588                       # The number of times a branch was mispredicted
system.switch_cpus.commit.committed_per_cycle::samples     17343046                       # Number of insts commited each cycle
system.switch_cpus.commit.committed_per_cycle::mean     0.860585                       # Number of insts commited each cycle
system.switch_cpus.commit.committed_per_cycle::stdev     1.968725                       # Number of insts commited each cycle
system.switch_cpus.commit.committed_per_cycle::underflows            0      0.00%      0.00% # Number of insts commited each cycle
system.switch_cpus.commit.committed_per_cycle::0     12628978     72.82%     72.82% # Number of insts commited each cycle
system.switch_cpus.commit.committed_per_cycle::1      2148772     12.39%     85.21% # Number of insts commited each cycle
system.switch_cpus.commit.committed_per_cycle::2       573895      3.31%     88.52% # Number of insts commited each cycle
system.switch_cpus.commit.committed_per_cycle::3       347409      2.00%     90.52% # Number of insts commited each cycle
system.switch_cpus.commit.committed_per_cycle::4       303598      1.75%     92.27% # Number of insts commited each cycle
system.switch_cpus.commit.committed_per_cycle::5       304857      1.76%     94.03% # Number of insts commited each cycle
system.switch_cpus.commit.committed_per_cycle::6       144212      0.83%     94.86% # Number of insts commited each cycle
system.switch_cpus.commit.committed_per_cycle::7       148171      0.85%     95.71% # Number of insts commited each cycle
system.switch_cpus.commit.committed_per_cycle::8       743154      4.29%    100.00% # Number of insts commited each cycle
system.switch_cpus.commit.committed_per_cycle::overflows            0      0.00%    100.00% # Number of insts commited each cycle
system.switch_cpus.commit.committed_per_cycle::min_value            0                       # Number of insts commited each cycle
system.switch_cpus.commit.committed_per_cycle::max_value            8                       # Number of insts commited each cycle
system.switch_cpus.commit.committed_per_cycle::total     17343046                       # Number of insts commited each cycle
system.switch_cpus.commit.committedInsts     14925167                       # Number of instructions committed
system.switch_cpus.commit.committedOps       14925167                       # Number of ops (including micro ops) committed
system.switch_cpus.commit.swp_count                 0                       # Number of s/w prefetches committed
system.switch_cpus.commit.refs                4584032                       # Number of memory references committed
system.switch_cpus.commit.loads               2998227                       # Number of loads committed
system.switch_cpus.commit.membars               76386                       # Number of memory barriers committed
system.switch_cpus.commit.branches            3041581                       # Number of branches committed
system.switch_cpus.commit.fp_insts              17289                       # Number of committed floating point instructions.
system.switch_cpus.commit.int_insts          13663619                       # Number of committed integer instructions.
system.switch_cpus.commit.function_calls       360951                       # Number of function calls committed.
system.switch_cpus.commit.op_class_0::No_OpClass       754731      5.06%      5.06% # Class of committed instruction
system.switch_cpus.commit.op_class_0::IntAlu      9323919     62.47%     67.53% # Class of committed instruction
system.switch_cpus.commit.op_class_0::IntMult        11016      0.07%     67.60% # Class of committed instruction
system.switch_cpus.commit.op_class_0::IntDiv            0      0.00%     67.60% # Class of committed instruction
system.switch_cpus.commit.op_class_0::FloatAdd         1735      0.01%     67.61% # Class of committed instruction
system.switch_cpus.commit.op_class_0::FloatCmp            2      0.00%     67.61% # Class of committed instruction
system.switch_cpus.commit.op_class_0::FloatCvt            4      0.00%     67.61% # Class of committed instruction
system.switch_cpus.commit.op_class_0::FloatMult            2      0.00%     67.61% # Class of committed instruction
system.switch_cpus.commit.op_class_0::FloatDiv          245      0.00%     67.62% # Class of committed instruction
system.switch_cpus.commit.op_class_0::FloatSqrt            0      0.00%     67.62% # Class of committed instruction
system.switch_cpus.commit.op_class_0::SimdAdd            0      0.00%     67.62% # Class of committed instruction
system.switch_cpus.commit.op_class_0::SimdAddAcc            0      0.00%     67.62% # Class of committed instruction
system.switch_cpus.commit.op_class_0::SimdAlu            0      0.00%     67.62% # Class of committed instruction
system.switch_cpus.commit.op_class_0::SimdCmp            0      0.00%     67.62% # Class of committed instruction
system.switch_cpus.commit.op_class_0::SimdCvt            0      0.00%     67.62% # Class of committed instruction
system.switch_cpus.commit.op_class_0::SimdMisc            0      0.00%     67.62% # Class of committed instruction
system.switch_cpus.commit.op_class_0::SimdMult            0      0.00%     67.62% # Class of committed instruction
system.switch_cpus.commit.op_class_0::SimdMultAcc            0      0.00%     67.62% # Class of committed instruction
system.switch_cpus.commit.op_class_0::SimdShift            0      0.00%     67.62% # Class of committed instruction
system.switch_cpus.commit.op_class_0::SimdShiftAcc            0      0.00%     67.62% # Class of committed instruction
system.switch_cpus.commit.op_class_0::SimdSqrt            0      0.00%     67.62% # Class of committed instruction
system.switch_cpus.commit.op_class_0::SimdFloatAdd            0      0.00%     67.62% # Class of committed instruction
system.switch_cpus.commit.op_class_0::SimdFloatAlu            0      0.00%     67.62% # Class of committed instruction
system.switch_cpus.commit.op_class_0::SimdFloatCmp            0      0.00%     67.62% # Class of committed instruction
system.switch_cpus.commit.op_class_0::SimdFloatCvt            0      0.00%     67.62% # Class of committed instruction
system.switch_cpus.commit.op_class_0::SimdFloatDiv            0      0.00%     67.62% # Class of committed instruction
system.switch_cpus.commit.op_class_0::SimdFloatMisc            0      0.00%     67.62% # Class of committed instruction
system.switch_cpus.commit.op_class_0::SimdFloatMult            0      0.00%     67.62% # Class of committed instruction
system.switch_cpus.commit.op_class_0::SimdFloatMultAcc            0      0.00%     67.62% # Class of committed instruction
system.switch_cpus.commit.op_class_0::SimdFloatSqrt            0      0.00%     67.62% # Class of committed instruction
system.switch_cpus.commit.op_class_0::MemRead      3074613     20.60%     88.22% # Class of committed instruction
system.switch_cpus.commit.op_class_0::MemWrite      1586476     10.63%     98.84% # Class of committed instruction
system.switch_cpus.commit.op_class_0::IprAccess       172424      1.16%    100.00% # Class of committed instruction
system.switch_cpus.commit.op_class_0::InstPrefetch            0      0.00%    100.00% # Class of committed instruction
system.switch_cpus.commit.op_class_0::total     14925167                       # Class of committed instruction
system.switch_cpus.commit.bw_lim_events        743154                       # number cycles where commit BW limit reached
system.switch_cpus.rob.rob_reads             34850615                       # The number of ROB reads
system.switch_cpus.rob.rob_writes            37099081                       # The number of ROB writes
system.switch_cpus.timesIdled                   25890                       # Number of times that the entire CPU went into an idle state and unscheduled itself
system.switch_cpus.idleCycles                  861857                       # Total number of cycles that the CPU has spent unscheduled due to idling
system.switch_cpus.quiesceCycles                 4797                       # Total number of cycles that CPU has spent quiesced or waiting for an interrupt
system.switch_cpus.committedInsts            14170929                       # Number of Instructions Simulated
system.switch_cpus.committedOps              14170929                       # Number of Ops (including micro ops) Simulated
system.switch_cpus.cpi                       1.321389                       # CPI: Cycles Per Instruction
system.switch_cpus.cpi_total                 1.321389                       # CPI: Total CPI of All Threads
system.switch_cpus.ipc                       0.756779                       # IPC: Instructions Per Cycle
system.switch_cpus.ipc_total                 0.756779                       # IPC: Total IPC of All Threads
system.switch_cpus.int_regfile_reads         19577818                       # number of integer regfile reads
system.switch_cpus.int_regfile_writes        10620964                       # number of integer regfile writes
system.switch_cpus.fp_regfile_reads             11320                       # number of floating regfile reads
system.switch_cpus.fp_regfile_writes             8032                       # number of floating regfile writes
system.switch_cpus.misc_regfile_reads          410373                       # number of misc regfile reads
system.switch_cpus.misc_regfile_writes         252695                       # number of misc regfile writes
system.tol2bus.trans_dist::ReadReq             113926                       # Transaction distribution
system.tol2bus.trans_dist::ReadResp            113923                       # Transaction distribution
system.tol2bus.trans_dist::WriteReq               197                       # Transaction distribution
system.tol2bus.trans_dist::WriteResp              197                       # Transaction distribution
system.tol2bus.trans_dist::Writeback            50067                       # Transaction distribution
system.tol2bus.trans_dist::WriteInvalidateReq         1932                       # Transaction distribution
system.tol2bus.trans_dist::UpgradeReq               4                       # Transaction distribution
system.tol2bus.trans_dist::UpgradeResp              4                       # Transaction distribution
system.tol2bus.trans_dist::ReadExReq            16472                       # Transaction distribution
system.tol2bus.trans_dist::ReadExResp           16472                       # Transaction distribution
system.tol2bus.pkt_count_system.cpu.icache.mem_side::system.l2.cpu_side        91117                       # Packet count per connected master and slave (bytes)
system.tol2bus.pkt_count_system.cpu.dcache.mem_side::system.l2.cpu_side       220134                       # Packet count per connected master and slave (bytes)
system.tol2bus.pkt_count::total                311251                       # Packet count per connected master and slave (bytes)
system.tol2bus.pkt_size_system.cpu.icache.mem_side::system.l2.cpu_side      2915584                       # Cumulative packet size per connected master and slave (bytes)
system.tol2bus.pkt_size_system.cpu.dcache.mem_side::system.l2.cpu_side      8608971                       # Cumulative packet size per connected master and slave (bytes)
system.tol2bus.pkt_size::total               11524555                       # Cumulative packet size per connected master and slave (bytes)
system.tol2bus.snoops                            1944                       # Total snoops (count)
system.tol2bus.snoop_fanout::samples           182598                       # Request fanout histogram
system.tol2bus.snoop_fanout::mean            1.010608                       # Request fanout histogram
system.tol2bus.snoop_fanout::stdev           0.102448                       # Request fanout histogram
system.tol2bus.snoop_fanout::underflows             0      0.00%      0.00% # Request fanout histogram
system.tol2bus.snoop_fanout::0                      0      0.00%      0.00% # Request fanout histogram
system.tol2bus.snoop_fanout::1                 180661     98.94%     98.94% # Request fanout histogram
system.tol2bus.snoop_fanout::2                   1937      1.06%    100.00% # Request fanout histogram
system.tol2bus.snoop_fanout::overflows              0      0.00%    100.00% # Request fanout histogram
system.tol2bus.snoop_fanout::min_value              1                       # Request fanout histogram
system.tol2bus.snoop_fanout::max_value              2                       # Request fanout histogram
system.tol2bus.snoop_fanout::total             182598                       # Request fanout histogram
system.tol2bus.reqLayer0.occupancy          140496000                       # Layer occupancy (ticks)
system.tol2bus.reqLayer0.utilization              1.5                       # Layer utilization (%)
system.tol2bus.snoopLayer0.occupancy             1500                       # Layer occupancy (ticks)
system.tol2bus.snoopLayer0.utilization            0.0                       # Layer utilization (%)
system.tol2bus.respLayer0.occupancy          69877460                       # Layer occupancy (ticks)
system.tol2bus.respLayer0.utilization             0.7                       # Layer utilization (%)
system.tol2bus.respLayer1.occupancy         136671499                       # Layer occupancy (ticks)
system.tol2bus.respLayer1.utilization             1.5                       # Layer utilization (%)
system.tsunami.ethernet.descDMAReads                0                       # Number of descriptors the device read w/ DMA
system.tsunami.ethernet.descDMAWrites               0                       # Number of descriptors the device wrote w/ DMA
system.tsunami.ethernet.descDmaReadBytes            0                       # number of descriptor bytes read w/ DMA
system.tsunami.ethernet.descDmaWriteBytes            0                       # number of descriptor bytes write w/ DMA
system.tsunami.ethernet.postedSwi                   0                       # number of software interrupts posted to CPU
system.tsunami.ethernet.coalescedSwi              nan                       # average number of Swi's coalesced into each post
system.tsunami.ethernet.totalSwi                    0                       # total number of Swi written to ISR
system.tsunami.ethernet.postedRxIdle                0                       # number of rxIdle interrupts posted to CPU
system.tsunami.ethernet.coalescedRxIdle           nan                       # average number of RxIdle's coalesced into each post
system.tsunami.ethernet.totalRxIdle                 0                       # total number of RxIdle written to ISR
system.tsunami.ethernet.postedRxOk                  0                       # number of RxOk interrupts posted to CPU
system.tsunami.ethernet.coalescedRxOk             nan                       # average number of RxOk's coalesced into each post
system.tsunami.ethernet.totalRxOk                   0                       # total number of RxOk written to ISR
system.tsunami.ethernet.postedRxDesc                0                       # number of RxDesc interrupts posted to CPU
system.tsunami.ethernet.coalescedRxDesc           nan                       # average number of RxDesc's coalesced into each post
system.tsunami.ethernet.totalRxDesc                 0                       # total number of RxDesc written to ISR
system.tsunami.ethernet.postedTxOk                  0                       # number of TxOk interrupts posted to CPU
system.tsunami.ethernet.coalescedTxOk             nan                       # average number of TxOk's coalesced into each post
system.tsunami.ethernet.totalTxOk                   0                       # total number of TxOk written to ISR
system.tsunami.ethernet.postedTxIdle                0                       # number of TxIdle interrupts posted to CPU
system.tsunami.ethernet.coalescedTxIdle           nan                       # average number of TxIdle's coalesced into each post
system.tsunami.ethernet.totalTxIdle                 0                       # total number of TxIdle written to ISR
system.tsunami.ethernet.postedTxDesc                0                       # number of TxDesc interrupts posted to CPU
system.tsunami.ethernet.coalescedTxDesc           nan                       # average number of TxDesc's coalesced into each post
system.tsunami.ethernet.totalTxDesc                 0                       # total number of TxDesc written to ISR
system.tsunami.ethernet.postedRxOrn                 0                       # number of RxOrn posted to CPU
system.tsunami.ethernet.coalescedRxOrn            nan                       # average number of RxOrn's coalesced into each post
system.tsunami.ethernet.totalRxOrn                  0                       # total number of RxOrn written to ISR
system.tsunami.ethernet.coalescedTotal            nan                       # average number of interrupts coalesced into each post
system.tsunami.ethernet.postedInterrupts            0                       # number of posts to CPU
system.tsunami.ethernet.droppedPackets              0                       # number of packets dropped
system.switch_cpus.kern.inst.arm                    0                       # number of arm instructions executed
system.switch_cpus.kern.inst.quiesce                0                       # number of quiesce instructions executed
system.switch_cpus.kern.inst.hwrei                  0                       # number of hwrei instructions executed
system.switch_cpus.kern.mode_switch::kernel            0                       # number of protection mode switches
system.switch_cpus.kern.mode_switch::user            0                       # number of protection mode switches
system.switch_cpus.kern.mode_switch::idle            0                       # number of protection mode switches
system.switch_cpus.kern.mode_good::kernel            0                      
system.switch_cpus.kern.mode_good::user             0                      
system.switch_cpus.kern.mode_good::idle             0                      
system.switch_cpus.kern.mode_switch_good::kernel          nan                       # fraction of useful protection mode switches
system.switch_cpus.kern.mode_switch_good::user          nan                       # fraction of useful protection mode switches
system.switch_cpus.kern.mode_switch_good::idle          nan                       # fraction of useful protection mode switches
system.switch_cpus.kern.mode_switch_good::total          nan                       # fraction of useful protection mode switches
system.switch_cpus.kern.mode_ticks::kernel            0                       # number of ticks spent at the given mode
system.switch_cpus.kern.mode_ticks::user            0                       # number of ticks spent at the given mode
system.switch_cpus.kern.mode_ticks::idle            0                       # number of ticks spent at the given mode
system.switch_cpus.kern.swap_context                0                       # number of times the context was actually changed

---------- End Simulation Statistics   ----------
