
---------- Begin Simulation Statistics ----------
sim_seconds                                  0.001190                       # Number of seconds simulated
sim_ticks                                  1189505000                       # Number of ticks simulated
final_tick                               2262442242000                       # Number of ticks from beginning of simulation (restored from checkpoints and never reset)
sim_freq                                 1000000000000                       # Frequency of simulated ticks
host_inst_rate                               32696311                       # Simulator instruction rate (inst/s)
host_op_rate                                 32696242                       # Simulator op (including micro ops) rate (op/s)
host_tick_rate                              329904259                       # Simulator tick rate (ticks/s)
host_mem_usage                                 741908                       # Number of bytes of host memory used
host_seconds                                     3.61                       # Real time elapsed on the host
sim_insts                                   117889564                       # Number of instructions simulated
sim_ops                                     117889564                       # Number of ops (including micro ops) simulated
system.voltage_domain.voltage                       1                       # Voltage in Volts
system.clk_domain.clock                          1000                       # Clock period in ticks
system.mem_ctrls.bytes_read::switch_cpus0.inst       180544                       # Number of bytes read from this memory
system.mem_ctrls.bytes_read::switch_cpus0.data       245504                       # Number of bytes read from this memory
system.mem_ctrls.bytes_read::switch_cpus1.inst        74368                       # Number of bytes read from this memory
system.mem_ctrls.bytes_read::switch_cpus1.data       129856                       # Number of bytes read from this memory
system.mem_ctrls.bytes_read::switch_cpus2.inst         3392                       # Number of bytes read from this memory
system.mem_ctrls.bytes_read::switch_cpus2.data         2112                       # Number of bytes read from this memory
system.mem_ctrls.bytes_read::switch_cpus3.inst       242368                       # Number of bytes read from this memory
system.mem_ctrls.bytes_read::switch_cpus3.data       692736                       # Number of bytes read from this memory
system.mem_ctrls.bytes_read::total            1570880                       # Number of bytes read from this memory
system.mem_ctrls.bytes_inst_read::switch_cpus0.inst       180544                       # Number of instructions bytes read from this memory
system.mem_ctrls.bytes_inst_read::switch_cpus1.inst        74368                       # Number of instructions bytes read from this memory
system.mem_ctrls.bytes_inst_read::switch_cpus2.inst         3392                       # Number of instructions bytes read from this memory
system.mem_ctrls.bytes_inst_read::switch_cpus3.inst       242368                       # Number of instructions bytes read from this memory
system.mem_ctrls.bytes_inst_read::total        500672                       # Number of instructions bytes read from this memory
system.mem_ctrls.bytes_written::writebacks       660672                       # Number of bytes written to this memory
system.mem_ctrls.bytes_written::total          660672                       # Number of bytes written to this memory
system.mem_ctrls.num_reads::switch_cpus0.inst         2821                       # Number of read requests responded to by this memory
system.mem_ctrls.num_reads::switch_cpus0.data         3836                       # Number of read requests responded to by this memory
system.mem_ctrls.num_reads::switch_cpus1.inst         1162                       # Number of read requests responded to by this memory
system.mem_ctrls.num_reads::switch_cpus1.data         2029                       # Number of read requests responded to by this memory
system.mem_ctrls.num_reads::switch_cpus2.inst           53                       # Number of read requests responded to by this memory
system.mem_ctrls.num_reads::switch_cpus2.data           33                       # Number of read requests responded to by this memory
system.mem_ctrls.num_reads::switch_cpus3.inst         3787                       # Number of read requests responded to by this memory
system.mem_ctrls.num_reads::switch_cpus3.data        10824                       # Number of read requests responded to by this memory
system.mem_ctrls.num_reads::total               24545                       # Number of read requests responded to by this memory
system.mem_ctrls.num_writes::writebacks         10323                       # Number of write requests responded to by this memory
system.mem_ctrls.num_writes::total              10323                       # Number of write requests responded to by this memory
system.mem_ctrls.bw_read::switch_cpus0.inst    151780783                       # Total read bandwidth from this memory (bytes/s)
system.mem_ctrls.bw_read::switch_cpus0.data    206391734                       # Total read bandwidth from this memory (bytes/s)
system.mem_ctrls.bw_read::switch_cpus1.inst     62520124                       # Total read bandwidth from this memory (bytes/s)
system.mem_ctrls.bw_read::switch_cpus1.data    109168099                       # Total read bandwidth from this memory (bytes/s)
system.mem_ctrls.bw_read::switch_cpus2.inst      2851606                       # Total read bandwidth from this memory (bytes/s)
system.mem_ctrls.bw_read::switch_cpus2.data      1775528                       # Total read bandwidth from this memory (bytes/s)
system.mem_ctrls.bw_read::switch_cpus3.inst    203755344                       # Total read bandwidth from this memory (bytes/s)
system.mem_ctrls.bw_read::switch_cpus3.data    582373340                       # Total read bandwidth from this memory (bytes/s)
system.mem_ctrls.bw_read::total            1320616559                       # Total read bandwidth from this memory (bytes/s)
system.mem_ctrls.bw_inst_read::switch_cpus0.inst    151780783                       # Instruction read bandwidth from this memory (bytes/s)
system.mem_ctrls.bw_inst_read::switch_cpus1.inst     62520124                       # Instruction read bandwidth from this memory (bytes/s)
system.mem_ctrls.bw_inst_read::switch_cpus2.inst      2851606                       # Instruction read bandwidth from this memory (bytes/s)
system.mem_ctrls.bw_inst_read::switch_cpus3.inst    203755344                       # Instruction read bandwidth from this memory (bytes/s)
system.mem_ctrls.bw_inst_read::total        420907857                       # Instruction read bandwidth from this memory (bytes/s)
system.mem_ctrls.bw_write::writebacks       555417590                       # Write bandwidth from this memory (bytes/s)
system.mem_ctrls.bw_write::total            555417590                       # Write bandwidth from this memory (bytes/s)
system.mem_ctrls.bw_total::writebacks       555417590                       # Total bandwidth to/from this memory (bytes/s)
system.mem_ctrls.bw_total::switch_cpus0.inst    151780783                       # Total bandwidth to/from this memory (bytes/s)
system.mem_ctrls.bw_total::switch_cpus0.data    206391734                       # Total bandwidth to/from this memory (bytes/s)
system.mem_ctrls.bw_total::switch_cpus1.inst     62520124                       # Total bandwidth to/from this memory (bytes/s)
system.mem_ctrls.bw_total::switch_cpus1.data    109168099                       # Total bandwidth to/from this memory (bytes/s)
system.mem_ctrls.bw_total::switch_cpus2.inst      2851606                       # Total bandwidth to/from this memory (bytes/s)
system.mem_ctrls.bw_total::switch_cpus2.data      1775528                       # Total bandwidth to/from this memory (bytes/s)
system.mem_ctrls.bw_total::switch_cpus3.inst    203755344                       # Total bandwidth to/from this memory (bytes/s)
system.mem_ctrls.bw_total::switch_cpus3.data    582373340                       # Total bandwidth to/from this memory (bytes/s)
system.mem_ctrls.bw_total::total           1876034149                       # Total bandwidth to/from this memory (bytes/s)
system.mem_ctrls.readReqs                       24545                       # Number of read requests accepted
system.mem_ctrls.writeReqs                      10323                       # Number of write requests accepted
system.mem_ctrls.readBursts                     24545                       # Number of DRAM read bursts, including those serviced by the write queue
system.mem_ctrls.writeBursts                    10323                       # Number of DRAM write bursts, including those merged in the write queue
system.mem_ctrls.bytesReadDRAM                1567296                       # Total number of bytes read from DRAM
system.mem_ctrls.bytesReadWrQ                    3584                       # Total number of bytes read from write queue
system.mem_ctrls.bytesWritten                  659392                       # Total number of bytes written to DRAM
system.mem_ctrls.bytesReadSys                 1570880                       # Total read bytes from the system interface side
system.mem_ctrls.bytesWrittenSys               660672                       # Total written bytes from the system interface side
system.mem_ctrls.servicedByWrQ                     56                       # Number of DRAM read bursts serviced by the write queue
system.mem_ctrls.mergedWrBursts                     1                       # Number of DRAM write bursts merged with an existing one
system.mem_ctrls.neitherReadNorWriteReqs           62                       # Number of requests that are neither read nor write
system.mem_ctrls.perBankRdBursts::0              1140                       # Per bank write bursts
system.mem_ctrls.perBankRdBursts::1              1212                       # Per bank write bursts
system.mem_ctrls.perBankRdBursts::2              1550                       # Per bank write bursts
system.mem_ctrls.perBankRdBursts::3               993                       # Per bank write bursts
system.mem_ctrls.perBankRdBursts::4              1292                       # Per bank write bursts
system.mem_ctrls.perBankRdBursts::5              1971                       # Per bank write bursts
system.mem_ctrls.perBankRdBursts::6              1418                       # Per bank write bursts
system.mem_ctrls.perBankRdBursts::7              1198                       # Per bank write bursts
system.mem_ctrls.perBankRdBursts::8              1652                       # Per bank write bursts
system.mem_ctrls.perBankRdBursts::9              1918                       # Per bank write bursts
system.mem_ctrls.perBankRdBursts::10             1391                       # Per bank write bursts
system.mem_ctrls.perBankRdBursts::11             1301                       # Per bank write bursts
system.mem_ctrls.perBankRdBursts::12             1748                       # Per bank write bursts
system.mem_ctrls.perBankRdBursts::13             2467                       # Per bank write bursts
system.mem_ctrls.perBankRdBursts::14             1697                       # Per bank write bursts
system.mem_ctrls.perBankRdBursts::15             1541                       # Per bank write bursts
system.mem_ctrls.perBankWrBursts::0               423                       # Per bank write bursts
system.mem_ctrls.perBankWrBursts::1               630                       # Per bank write bursts
system.mem_ctrls.perBankWrBursts::2               394                       # Per bank write bursts
system.mem_ctrls.perBankWrBursts::3               199                       # Per bank write bursts
system.mem_ctrls.perBankWrBursts::4               332                       # Per bank write bursts
system.mem_ctrls.perBankWrBursts::5               805                       # Per bank write bursts
system.mem_ctrls.perBankWrBursts::6               395                       # Per bank write bursts
system.mem_ctrls.perBankWrBursts::7               295                       # Per bank write bursts
system.mem_ctrls.perBankWrBursts::8               410                       # Per bank write bursts
system.mem_ctrls.perBankWrBursts::9               593                       # Per bank write bursts
system.mem_ctrls.perBankWrBursts::10              698                       # Per bank write bursts
system.mem_ctrls.perBankWrBursts::11              760                       # Per bank write bursts
system.mem_ctrls.perBankWrBursts::12             1144                       # Per bank write bursts
system.mem_ctrls.perBankWrBursts::13             1218                       # Per bank write bursts
system.mem_ctrls.perBankWrBursts::14             1045                       # Per bank write bursts
system.mem_ctrls.perBankWrBursts::15              962                       # Per bank write bursts
system.mem_ctrls.numRdRetry                         0                       # Number of times read queue was full causing retry
system.mem_ctrls.numWrRetry                         0                       # Number of times write queue was full causing retry
system.mem_ctrls.totGap                    1189417500                       # Total gap between requests
system.mem_ctrls.readPktSize::0                     0                       # Read request sizes (log2)
system.mem_ctrls.readPktSize::1                     0                       # Read request sizes (log2)
system.mem_ctrls.readPktSize::2                     0                       # Read request sizes (log2)
system.mem_ctrls.readPktSize::3                     0                       # Read request sizes (log2)
system.mem_ctrls.readPktSize::4                     0                       # Read request sizes (log2)
system.mem_ctrls.readPktSize::5                     0                       # Read request sizes (log2)
system.mem_ctrls.readPktSize::6                 24545                       # Read request sizes (log2)
system.mem_ctrls.writePktSize::0                    0                       # Write request sizes (log2)
system.mem_ctrls.writePktSize::1                    0                       # Write request sizes (log2)
system.mem_ctrls.writePktSize::2                    0                       # Write request sizes (log2)
system.mem_ctrls.writePktSize::3                    0                       # Write request sizes (log2)
system.mem_ctrls.writePktSize::4                    0                       # Write request sizes (log2)
system.mem_ctrls.writePktSize::5                    0                       # Write request sizes (log2)
system.mem_ctrls.writePktSize::6                10323                       # Write request sizes (log2)
system.mem_ctrls.rdQLenPdf::0                   11404                       # What read queue length does an incoming req see
system.mem_ctrls.rdQLenPdf::1                    6682                       # What read queue length does an incoming req see
system.mem_ctrls.rdQLenPdf::2                    3857                       # What read queue length does an incoming req see
system.mem_ctrls.rdQLenPdf::3                    2165                       # What read queue length does an incoming req see
system.mem_ctrls.rdQLenPdf::4                     265                       # What read queue length does an incoming req see
system.mem_ctrls.rdQLenPdf::5                      74                       # What read queue length does an incoming req see
system.mem_ctrls.rdQLenPdf::6                      20                       # What read queue length does an incoming req see
system.mem_ctrls.rdQLenPdf::7                      14                       # What read queue length does an incoming req see
system.mem_ctrls.rdQLenPdf::8                       3                       # What read queue length does an incoming req see
system.mem_ctrls.rdQLenPdf::9                       1                       # What read queue length does an incoming req see
system.mem_ctrls.rdQLenPdf::10                      1                       # What read queue length does an incoming req see
system.mem_ctrls.rdQLenPdf::11                      1                       # What read queue length does an incoming req see
system.mem_ctrls.rdQLenPdf::12                      1                       # What read queue length does an incoming req see
system.mem_ctrls.rdQLenPdf::13                      1                       # What read queue length does an incoming req see
system.mem_ctrls.rdQLenPdf::14                      0                       # What read queue length does an incoming req see
system.mem_ctrls.rdQLenPdf::15                      0                       # What read queue length does an incoming req see
system.mem_ctrls.rdQLenPdf::16                      0                       # What read queue length does an incoming req see
system.mem_ctrls.rdQLenPdf::17                      0                       # What read queue length does an incoming req see
system.mem_ctrls.rdQLenPdf::18                      0                       # What read queue length does an incoming req see
system.mem_ctrls.rdQLenPdf::19                      0                       # What read queue length does an incoming req see
system.mem_ctrls.rdQLenPdf::20                      0                       # What read queue length does an incoming req see
system.mem_ctrls.rdQLenPdf::21                      0                       # What read queue length does an incoming req see
system.mem_ctrls.rdQLenPdf::22                      0                       # What read queue length does an incoming req see
system.mem_ctrls.rdQLenPdf::23                      0                       # What read queue length does an incoming req see
system.mem_ctrls.rdQLenPdf::24                      0                       # What read queue length does an incoming req see
system.mem_ctrls.rdQLenPdf::25                      0                       # What read queue length does an incoming req see
system.mem_ctrls.rdQLenPdf::26                      0                       # What read queue length does an incoming req see
system.mem_ctrls.rdQLenPdf::27                      0                       # What read queue length does an incoming req see
system.mem_ctrls.rdQLenPdf::28                      0                       # What read queue length does an incoming req see
system.mem_ctrls.rdQLenPdf::29                      0                       # What read queue length does an incoming req see
system.mem_ctrls.rdQLenPdf::30                      0                       # What read queue length does an incoming req see
system.mem_ctrls.rdQLenPdf::31                      0                       # What read queue length does an incoming req see
system.mem_ctrls.wrQLenPdf::0                       1                       # What write queue length does an incoming req see
system.mem_ctrls.wrQLenPdf::1                       1                       # What write queue length does an incoming req see
system.mem_ctrls.wrQLenPdf::2                       1                       # What write queue length does an incoming req see
system.mem_ctrls.wrQLenPdf::3                       1                       # What write queue length does an incoming req see
system.mem_ctrls.wrQLenPdf::4                       1                       # What write queue length does an incoming req see
system.mem_ctrls.wrQLenPdf::5                       1                       # What write queue length does an incoming req see
system.mem_ctrls.wrQLenPdf::6                       1                       # What write queue length does an incoming req see
system.mem_ctrls.wrQLenPdf::7                       1                       # What write queue length does an incoming req see
system.mem_ctrls.wrQLenPdf::8                       1                       # What write queue length does an incoming req see
system.mem_ctrls.wrQLenPdf::9                       1                       # What write queue length does an incoming req see
system.mem_ctrls.wrQLenPdf::10                      1                       # What write queue length does an incoming req see
system.mem_ctrls.wrQLenPdf::11                      1                       # What write queue length does an incoming req see
system.mem_ctrls.wrQLenPdf::12                      1                       # What write queue length does an incoming req see
system.mem_ctrls.wrQLenPdf::13                      1                       # What write queue length does an incoming req see
system.mem_ctrls.wrQLenPdf::14                      1                       # What write queue length does an incoming req see
system.mem_ctrls.wrQLenPdf::15                     39                       # What write queue length does an incoming req see
system.mem_ctrls.wrQLenPdf::16                     44                       # What write queue length does an incoming req see
system.mem_ctrls.wrQLenPdf::17                    278                       # What write queue length does an incoming req see
system.mem_ctrls.wrQLenPdf::18                    459                       # What write queue length does an incoming req see
system.mem_ctrls.wrQLenPdf::19                    572                       # What write queue length does an incoming req see
system.mem_ctrls.wrQLenPdf::20                    641                       # What write queue length does an incoming req see
system.mem_ctrls.wrQLenPdf::21                    655                       # What write queue length does an incoming req see
system.mem_ctrls.wrQLenPdf::22                    661                       # What write queue length does an incoming req see
system.mem_ctrls.wrQLenPdf::23                    664                       # What write queue length does an incoming req see
system.mem_ctrls.wrQLenPdf::24                    667                       # What write queue length does an incoming req see
system.mem_ctrls.wrQLenPdf::25                    688                       # What write queue length does an incoming req see
system.mem_ctrls.wrQLenPdf::26                    790                       # What write queue length does an incoming req see
system.mem_ctrls.wrQLenPdf::27                    712                       # What write queue length does an incoming req see
system.mem_ctrls.wrQLenPdf::28                    702                       # What write queue length does an incoming req see
system.mem_ctrls.wrQLenPdf::29                    740                       # What write queue length does an incoming req see
system.mem_ctrls.wrQLenPdf::30                    671                       # What write queue length does an incoming req see
system.mem_ctrls.wrQLenPdf::31                    667                       # What write queue length does an incoming req see
system.mem_ctrls.wrQLenPdf::32                    645                       # What write queue length does an incoming req see
system.mem_ctrls.wrQLenPdf::33                      6                       # What write queue length does an incoming req see
system.mem_ctrls.wrQLenPdf::34                      3                       # What write queue length does an incoming req see
system.mem_ctrls.wrQLenPdf::35                      1                       # What write queue length does an incoming req see
system.mem_ctrls.wrQLenPdf::36                      1                       # What write queue length does an incoming req see
system.mem_ctrls.wrQLenPdf::37                      1                       # What write queue length does an incoming req see
system.mem_ctrls.wrQLenPdf::38                      0                       # What write queue length does an incoming req see
system.mem_ctrls.wrQLenPdf::39                      0                       # What write queue length does an incoming req see
system.mem_ctrls.wrQLenPdf::40                      0                       # What write queue length does an incoming req see
system.mem_ctrls.wrQLenPdf::41                      0                       # What write queue length does an incoming req see
system.mem_ctrls.wrQLenPdf::42                      0                       # What write queue length does an incoming req see
system.mem_ctrls.wrQLenPdf::43                      0                       # What write queue length does an incoming req see
system.mem_ctrls.wrQLenPdf::44                      0                       # What write queue length does an incoming req see
system.mem_ctrls.wrQLenPdf::45                      0                       # What write queue length does an incoming req see
system.mem_ctrls.wrQLenPdf::46                      0                       # What write queue length does an incoming req see
system.mem_ctrls.wrQLenPdf::47                      0                       # What write queue length does an incoming req see
system.mem_ctrls.wrQLenPdf::48                      0                       # What write queue length does an incoming req see
system.mem_ctrls.wrQLenPdf::49                      0                       # What write queue length does an incoming req see
system.mem_ctrls.wrQLenPdf::50                      0                       # What write queue length does an incoming req see
system.mem_ctrls.wrQLenPdf::51                      0                       # What write queue length does an incoming req see
system.mem_ctrls.wrQLenPdf::52                      0                       # What write queue length does an incoming req see
system.mem_ctrls.wrQLenPdf::53                      0                       # What write queue length does an incoming req see
system.mem_ctrls.wrQLenPdf::54                      0                       # What write queue length does an incoming req see
system.mem_ctrls.wrQLenPdf::55                      0                       # What write queue length does an incoming req see
system.mem_ctrls.wrQLenPdf::56                      0                       # What write queue length does an incoming req see
system.mem_ctrls.wrQLenPdf::57                      0                       # What write queue length does an incoming req see
system.mem_ctrls.wrQLenPdf::58                      0                       # What write queue length does an incoming req see
system.mem_ctrls.wrQLenPdf::59                      0                       # What write queue length does an incoming req see
system.mem_ctrls.wrQLenPdf::60                      0                       # What write queue length does an incoming req see
system.mem_ctrls.wrQLenPdf::61                      0                       # What write queue length does an incoming req see
system.mem_ctrls.wrQLenPdf::62                      0                       # What write queue length does an incoming req see
system.mem_ctrls.wrQLenPdf::63                      0                       # What write queue length does an incoming req see
system.mem_ctrls.bytesPerActivate::samples         9233                       # Bytes accessed per row activation
system.mem_ctrls.bytesPerActivate::mean    240.854327                       # Bytes accessed per row activation
system.mem_ctrls.bytesPerActivate::gmean   141.449569                       # Bytes accessed per row activation
system.mem_ctrls.bytesPerActivate::stdev   292.422745                       # Bytes accessed per row activation
system.mem_ctrls.bytesPerActivate::0-127         4444     48.13%     48.13% # Bytes accessed per row activation
system.mem_ctrls.bytesPerActivate::128-255         2241     24.27%     72.40% # Bytes accessed per row activation
system.mem_ctrls.bytesPerActivate::256-383          734      7.95%     80.35% # Bytes accessed per row activation
system.mem_ctrls.bytesPerActivate::384-511          370      4.01%     84.36% # Bytes accessed per row activation
system.mem_ctrls.bytesPerActivate::512-639          249      2.70%     87.06% # Bytes accessed per row activation
system.mem_ctrls.bytesPerActivate::640-767          177      1.92%     88.97% # Bytes accessed per row activation
system.mem_ctrls.bytesPerActivate::768-895          160      1.73%     90.71% # Bytes accessed per row activation
system.mem_ctrls.bytesPerActivate::896-1023          106      1.15%     91.86% # Bytes accessed per row activation
system.mem_ctrls.bytesPerActivate::1024-1151          752      8.14%    100.00% # Bytes accessed per row activation
system.mem_ctrls.bytesPerActivate::total         9233                       # Bytes accessed per row activation
system.mem_ctrls.rdPerTurnAround::samples          637                       # Reads before turning the bus around for writes
system.mem_ctrls.rdPerTurnAround::mean      38.423862                       # Reads before turning the bus around for writes
system.mem_ctrls.rdPerTurnAround::gmean     31.598889                       # Reads before turning the bus around for writes
system.mem_ctrls.rdPerTurnAround::stdev     27.028565                       # Reads before turning the bus around for writes
system.mem_ctrls.rdPerTurnAround::8-15             36      5.65%      5.65% # Reads before turning the bus around for writes
system.mem_ctrls.rdPerTurnAround::16-23           204     32.03%     37.68% # Reads before turning the bus around for writes
system.mem_ctrls.rdPerTurnAround::24-31            96     15.07%     52.75% # Reads before turning the bus around for writes
system.mem_ctrls.rdPerTurnAround::32-39            71     11.15%     63.89% # Reads before turning the bus around for writes
system.mem_ctrls.rdPerTurnAround::40-47            62      9.73%     73.63% # Reads before turning the bus around for writes
system.mem_ctrls.rdPerTurnAround::48-55            45      7.06%     80.69% # Reads before turning the bus around for writes
system.mem_ctrls.rdPerTurnAround::56-63            35      5.49%     86.19% # Reads before turning the bus around for writes
system.mem_ctrls.rdPerTurnAround::64-71            18      2.83%     89.01% # Reads before turning the bus around for writes
system.mem_ctrls.rdPerTurnAround::72-79            19      2.98%     91.99% # Reads before turning the bus around for writes
system.mem_ctrls.rdPerTurnAround::80-87            13      2.04%     94.03% # Reads before turning the bus around for writes
system.mem_ctrls.rdPerTurnAround::88-95             8      1.26%     95.29% # Reads before turning the bus around for writes
system.mem_ctrls.rdPerTurnAround::96-103            7      1.10%     96.39% # Reads before turning the bus around for writes
system.mem_ctrls.rdPerTurnAround::104-111            9      1.41%     97.80% # Reads before turning the bus around for writes
system.mem_ctrls.rdPerTurnAround::112-119            4      0.63%     98.43% # Reads before turning the bus around for writes
system.mem_ctrls.rdPerTurnAround::128-135            3      0.47%     98.90% # Reads before turning the bus around for writes
system.mem_ctrls.rdPerTurnAround::136-143            3      0.47%     99.37% # Reads before turning the bus around for writes
system.mem_ctrls.rdPerTurnAround::152-159            3      0.47%     99.84% # Reads before turning the bus around for writes
system.mem_ctrls.rdPerTurnAround::224-231            1      0.16%    100.00% # Reads before turning the bus around for writes
system.mem_ctrls.rdPerTurnAround::total           637                       # Reads before turning the bus around for writes
system.mem_ctrls.wrPerTurnAround::samples          637                       # Writes before turning the bus around for reads
system.mem_ctrls.wrPerTurnAround::mean      16.174254                       # Writes before turning the bus around for reads
system.mem_ctrls.wrPerTurnAround::gmean     16.162222                       # Writes before turning the bus around for reads
system.mem_ctrls.wrPerTurnAround::stdev      0.655957                       # Writes before turning the bus around for reads
system.mem_ctrls.wrPerTurnAround::16              590     92.62%     92.62% # Writes before turning the bus around for reads
system.mem_ctrls.wrPerTurnAround::17                4      0.63%     93.25% # Writes before turning the bus around for reads
system.mem_ctrls.wrPerTurnAround::18               28      4.40%     97.65% # Writes before turning the bus around for reads
system.mem_ctrls.wrPerTurnAround::19                9      1.41%     99.06% # Writes before turning the bus around for reads
system.mem_ctrls.wrPerTurnAround::20                6      0.94%    100.00% # Writes before turning the bus around for reads
system.mem_ctrls.wrPerTurnAround::total           637                       # Writes before turning the bus around for reads
system.mem_ctrls.totQLat                    497104000                       # Total ticks spent queuing
system.mem_ctrls.totMemAccLat               956272750                       # Total ticks spent from burst creation until serviced by the DRAM
system.mem_ctrls.totBusLat                  122445000                       # Total ticks spent in databus transfers
system.mem_ctrls.avgQLat                     20299.07                       # Average queueing delay per DRAM burst
system.mem_ctrls.avgBusLat                    5000.00                       # Average bus latency per DRAM burst
system.mem_ctrls.avgMemAccLat                39049.07                       # Average memory access latency per DRAM burst
system.mem_ctrls.avgRdBW                      1317.60                       # Average DRAM read bandwidth in MiByte/s
system.mem_ctrls.avgWrBW                       554.34                       # Average achieved write bandwidth in MiByte/s
system.mem_ctrls.avgRdBWSys                   1320.62                       # Average system read bandwidth in MiByte/s
system.mem_ctrls.avgWrBWSys                    555.42                       # Average system write bandwidth in MiByte/s
system.mem_ctrls.peakBW                      12800.00                       # Theoretical peak bandwidth in MiByte/s
system.mem_ctrls.busUtil                        14.62                       # Data bus utilization in percentage
system.mem_ctrls.busUtilRead                    10.29                       # Data bus utilization in percentage for reads
system.mem_ctrls.busUtilWrite                    4.33                       # Data bus utilization in percentage for writes
system.mem_ctrls.avgRdQLen                       1.93                       # Average read queue length when enqueuing
system.mem_ctrls.avgWrQLen                      25.91                       # Average write queue length when enqueuing
system.mem_ctrls.readRowHits                    18217                       # Number of row buffer hits during reads
system.mem_ctrls.writeRowHits                    7328                       # Number of row buffer hits during writes
system.mem_ctrls.readRowHitRate                 74.39                       # Row buffer hit rate for reads
system.mem_ctrls.writeRowHitRate                70.99                       # Row buffer hit rate for writes
system.mem_ctrls.avgGap                      34112.01                       # Average gap between requests
system.mem_ctrls.pageHitRate                    73.38                       # Row buffer hit rate, read and write combined
system.mem_ctrls_0.actEnergy                 27563760                       # Energy for activate commands per rank (pJ)
system.mem_ctrls_0.preEnergy                 15039750                       # Energy for precharge commands per rank (pJ)
system.mem_ctrls_0.readEnergy                83717400                       # Energy for read commands per rank (pJ)
system.mem_ctrls_0.writeEnergy               22213440                       # Energy for write commands per rank (pJ)
system.mem_ctrls_0.refreshEnergy             77301120                       # Energy for refresh commands per rank (pJ)
system.mem_ctrls_0.actBackEnergy            784725840                       # Energy for active background per rank (pJ)
system.mem_ctrls_0.preBackEnergy             21906000                       # Energy for precharge background per rank (pJ)
system.mem_ctrls_0.totalEnergy             1032467310                       # Total energy per rank (pJ)
system.mem_ctrls_0.averagePower            872.185737                       # Core power per rank (mW)
system.mem_ctrls_0.memoryStateTime::IDLE     31332000                       # Time in different power states
system.mem_ctrls_0.memoryStateTime::REF      39520000                       # Time in different power states
system.mem_ctrls_0.memoryStateTime::PRE_PDN            0                       # Time in different power states
system.mem_ctrls_0.memoryStateTime::ACT    1112931750                       # Time in different power states
system.mem_ctrls_0.memoryStateTime::ACT_PDN            0                       # Time in different power states
system.mem_ctrls_1.actEnergy                 41882400                       # Energy for activate commands per rank (pJ)
system.mem_ctrls_1.preEnergy                 22852500                       # Energy for precharge commands per rank (pJ)
system.mem_ctrls_1.readEnergy               106571400                       # Energy for read commands per rank (pJ)
system.mem_ctrls_1.writeEnergy               44238960                       # Energy for write commands per rank (pJ)
system.mem_ctrls_1.refreshEnergy             77301120                       # Energy for refresh commands per rank (pJ)
system.mem_ctrls_1.actBackEnergy            793670850                       # Energy for active background per rank (pJ)
system.mem_ctrls_1.preBackEnergy             14059500                       # Energy for precharge background per rank (pJ)
system.mem_ctrls_1.totalEnergy             1100576730                       # Total energy per rank (pJ)
system.mem_ctrls_1.averagePower            929.721762                       # Core power per rank (mW)
system.mem_ctrls_1.memoryStateTime::IDLE     19040500                       # Time in different power states
system.mem_ctrls_1.memoryStateTime::REF      39520000                       # Time in different power states
system.mem_ctrls_1.memoryStateTime::PRE_PDN            0                       # Time in different power states
system.mem_ctrls_1.memoryStateTime::ACT    1125581500                       # Time in different power states
system.mem_ctrls_1.memoryStateTime::ACT_PDN            0                       # Time in different power states
system.cpu_voltage_domain.voltage                   1                       # Voltage in Volts
system.cpu_clk_domain.clock                       500                       # Clock period in ticks
system.cpu0.dtb.fetch_hits                          0                       # ITB hits
system.cpu0.dtb.fetch_misses                        0                       # ITB misses
system.cpu0.dtb.fetch_acv                           0                       # ITB acv
system.cpu0.dtb.fetch_accesses                      0                       # ITB accesses
system.cpu0.dtb.read_hits                           0                       # DTB read hits
system.cpu0.dtb.read_misses                         0                       # DTB read misses
system.cpu0.dtb.read_acv                            0                       # DTB read access violations
system.cpu0.dtb.read_accesses                       0                       # DTB read accesses
system.cpu0.dtb.write_hits                          0                       # DTB write hits
system.cpu0.dtb.write_misses                        0                       # DTB write misses
system.cpu0.dtb.write_acv                           0                       # DTB write access violations
system.cpu0.dtb.write_accesses                      0                       # DTB write accesses
system.cpu0.dtb.data_hits                           0                       # DTB hits
system.cpu0.dtb.data_misses                         0                       # DTB misses
system.cpu0.dtb.data_acv                            0                       # DTB access violations
system.cpu0.dtb.data_accesses                       0                       # DTB accesses
system.cpu0.itb.fetch_hits                          0                       # ITB hits
system.cpu0.itb.fetch_misses                        0                       # ITB misses
system.cpu0.itb.fetch_acv                           0                       # ITB acv
system.cpu0.itb.fetch_accesses                      0                       # ITB accesses
system.cpu0.itb.read_hits                           0                       # DTB read hits
system.cpu0.itb.read_misses                         0                       # DTB read misses
system.cpu0.itb.read_acv                            0                       # DTB read access violations
system.cpu0.itb.read_accesses                       0                       # DTB read accesses
system.cpu0.itb.write_hits                          0                       # DTB write hits
system.cpu0.itb.write_misses                        0                       # DTB write misses
system.cpu0.itb.write_acv                           0                       # DTB write access violations
system.cpu0.itb.write_accesses                      0                       # DTB write accesses
system.cpu0.itb.data_hits                           0                       # DTB hits
system.cpu0.itb.data_misses                         0                       # DTB misses
system.cpu0.itb.data_acv                            0                       # DTB access violations
system.cpu0.itb.data_accesses                       0                       # DTB accesses
system.cpu0.numCycles                               0                       # number of cpu cycles simulated
system.cpu0.numWorkItemsStarted                     0                       # number of work items this cpu started
system.cpu0.numWorkItemsCompleted                   0                       # number of work items this cpu completed
system.cpu0.committedInsts                          0                       # Number of instructions committed
system.cpu0.committedOps                            0                       # Number of ops (including micro ops) committed
system.cpu0.num_int_alu_accesses                    0                       # Number of integer alu accesses
system.cpu0.num_fp_alu_accesses                     0                       # Number of float alu accesses
system.cpu0.num_func_calls                          0                       # number of times a function call or return occured
system.cpu0.num_conditional_control_insts            0                       # number of instructions that are conditional controls
system.cpu0.num_int_insts                           0                       # number of integer instructions
system.cpu0.num_fp_insts                            0                       # number of float instructions
system.cpu0.num_int_register_reads                  0                       # number of times the integer registers were read
system.cpu0.num_int_register_writes                 0                       # number of times the integer registers were written
system.cpu0.num_fp_register_reads                   0                       # number of times the floating registers were read
system.cpu0.num_fp_register_writes                  0                       # number of times the floating registers were written
system.cpu0.num_mem_refs                            0                       # number of memory refs
system.cpu0.num_load_insts                          0                       # Number of load instructions
system.cpu0.num_store_insts                         0                       # Number of store instructions
system.cpu0.num_idle_cycles                         0                       # Number of idle cycles
system.cpu0.num_busy_cycles                         0                       # Number of busy cycles
system.cpu0.not_idle_fraction                       1                       # Percentage of non-idle cycles
system.cpu0.idle_fraction                           0                       # Percentage of idle cycles
system.cpu0.op_class::No_OpClass                    0                       # Class of executed instruction
system.cpu0.op_class::IntAlu                        0                       # Class of executed instruction
system.cpu0.op_class::IntMult                       0                       # Class of executed instruction
system.cpu0.op_class::IntDiv                        0                       # Class of executed instruction
system.cpu0.op_class::FloatAdd                      0                       # Class of executed instruction
system.cpu0.op_class::FloatCmp                      0                       # Class of executed instruction
system.cpu0.op_class::FloatCvt                      0                       # Class of executed instruction
system.cpu0.op_class::FloatMult                     0                       # Class of executed instruction
system.cpu0.op_class::FloatDiv                      0                       # Class of executed instruction
system.cpu0.op_class::FloatSqrt                     0                       # Class of executed instruction
system.cpu0.op_class::SimdAdd                       0                       # Class of executed instruction
system.cpu0.op_class::SimdAddAcc                    0                       # Class of executed instruction
system.cpu0.op_class::SimdAlu                       0                       # Class of executed instruction
system.cpu0.op_class::SimdCmp                       0                       # Class of executed instruction
system.cpu0.op_class::SimdCvt                       0                       # Class of executed instruction
system.cpu0.op_class::SimdMisc                      0                       # Class of executed instruction
system.cpu0.op_class::SimdMult                      0                       # Class of executed instruction
system.cpu0.op_class::SimdMultAcc                   0                       # Class of executed instruction
system.cpu0.op_class::SimdShift                     0                       # Class of executed instruction
system.cpu0.op_class::SimdShiftAcc                  0                       # Class of executed instruction
system.cpu0.op_class::SimdSqrt                      0                       # Class of executed instruction
system.cpu0.op_class::SimdFloatAdd                  0                       # Class of executed instruction
system.cpu0.op_class::SimdFloatAlu                  0                       # Class of executed instruction
system.cpu0.op_class::SimdFloatCmp                  0                       # Class of executed instruction
system.cpu0.op_class::SimdFloatCvt                  0                       # Class of executed instruction
system.cpu0.op_class::SimdFloatDiv                  0                       # Class of executed instruction
system.cpu0.op_class::SimdFloatMisc                 0                       # Class of executed instruction
system.cpu0.op_class::SimdFloatMult                 0                       # Class of executed instruction
system.cpu0.op_class::SimdFloatMultAcc              0                       # Class of executed instruction
system.cpu0.op_class::SimdFloatSqrt                 0                       # Class of executed instruction
system.cpu0.op_class::MemRead                       0                       # Class of executed instruction
system.cpu0.op_class::MemWrite                      0                       # Class of executed instruction
system.cpu0.op_class::IprAccess                     0                       # Class of executed instruction
system.cpu0.op_class::InstPrefetch                  0                       # Class of executed instruction
system.cpu0.op_class::total                         0                       # Class of executed instruction
system.cpu0.kern.inst.arm                           0                       # number of arm instructions executed
system.cpu0.kern.inst.quiesce                       3                       # number of quiesce instructions executed
system.cpu0.kern.inst.hwrei                       597                       # number of hwrei instructions executed
system.cpu0.kern.ipl_count::0                     168     46.28%     46.28% # number of times we switched to this ipl
system.cpu0.kern.ipl_count::22                      1      0.28%     46.56% # number of times we switched to this ipl
system.cpu0.kern.ipl_count::30                      1      0.28%     46.83% # number of times we switched to this ipl
system.cpu0.kern.ipl_count::31                    193     53.17%    100.00% # number of times we switched to this ipl
system.cpu0.kern.ipl_count::total                 363                       # number of times we switched to this ipl
system.cpu0.kern.ipl_good::0                      168     49.85%     49.85% # number of times we switched to this ipl from a different ipl
system.cpu0.kern.ipl_good::22                       1      0.30%     50.15% # number of times we switched to this ipl from a different ipl
system.cpu0.kern.ipl_good::30                       1      0.30%     50.45% # number of times we switched to this ipl from a different ipl
system.cpu0.kern.ipl_good::31                     167     49.55%    100.00% # number of times we switched to this ipl from a different ipl
system.cpu0.kern.ipl_good::total                  337                       # number of times we switched to this ipl from a different ipl
system.cpu0.kern.ipl_ticks::0               489789500     88.20%     88.20% # number of cycles we spent at this ipl
system.cpu0.kern.ipl_ticks::22                 896500      0.16%     88.36% # number of cycles we spent at this ipl
system.cpu0.kern.ipl_ticks::30                1637500      0.29%     88.66% # number of cycles we spent at this ipl
system.cpu0.kern.ipl_ticks::31               62975000     11.34%    100.00% # number of cycles we spent at this ipl
system.cpu0.kern.ipl_ticks::total           555298500                       # number of cycles we spent at this ipl
system.cpu0.kern.ipl_used::0                        1                       # fraction of swpipl calls that actually changed the ipl
system.cpu0.kern.ipl_used::22                       1                       # fraction of swpipl calls that actually changed the ipl
system.cpu0.kern.ipl_used::30                       1                       # fraction of swpipl calls that actually changed the ipl
system.cpu0.kern.ipl_used::31                0.865285                       # fraction of swpipl calls that actually changed the ipl
system.cpu0.kern.ipl_used::total             0.928375                       # fraction of swpipl calls that actually changed the ipl
system.cpu0.kern.syscall::2                         1     33.33%     33.33% # number of syscalls executed
system.cpu0.kern.syscall::3                         1     33.33%     66.67% # number of syscalls executed
system.cpu0.kern.syscall::19                        1     33.33%    100.00% # number of syscalls executed
system.cpu0.kern.syscall::total                     3                       # number of syscalls executed
system.cpu0.kern.callpal::wripir                    1      0.26%      0.26% # number of callpals executed
system.cpu0.kern.callpal::swpctx                   12      3.08%      3.34% # number of callpals executed
system.cpu0.kern.callpal::tbi                       2      0.51%      3.86% # number of callpals executed
system.cpu0.kern.callpal::swpipl                  342     87.92%     91.77% # number of callpals executed
system.cpu0.kern.callpal::rdps                      2      0.51%     92.29% # number of callpals executed
system.cpu0.kern.callpal::rdusp                     1      0.26%     92.54% # number of callpals executed
system.cpu0.kern.callpal::rti                      19      4.88%     97.43% # number of callpals executed
system.cpu0.kern.callpal::callsys                   9      2.31%     99.74% # number of callpals executed
system.cpu0.kern.callpal::imb                       1      0.26%    100.00% # number of callpals executed
system.cpu0.kern.callpal::total                   389                       # number of callpals executed
system.cpu0.kern.mode_switch::kernel               32                       # number of protection mode switches
system.cpu0.kern.mode_switch::user                 17                       # number of protection mode switches
system.cpu0.kern.mode_switch::idle                  0                       # number of protection mode switches
system.cpu0.kern.mode_good::kernel                 18                      
system.cpu0.kern.mode_good::user                   17                      
system.cpu0.kern.mode_good::idle                    0                      
system.cpu0.kern.mode_switch_good::kernel     0.562500                       # fraction of useful protection mode switches
system.cpu0.kern.mode_switch_good::user             1                       # fraction of useful protection mode switches
system.cpu0.kern.mode_switch_good::idle           nan                       # fraction of useful protection mode switches
system.cpu0.kern.mode_switch_good::total     0.714286                       # fraction of useful protection mode switches
system.cpu0.kern.mode_ticks::kernel         240364500     73.74%     73.74% # number of ticks spent at the given mode
system.cpu0.kern.mode_ticks::user            85576500     26.26%    100.00% # number of ticks spent at the given mode
system.cpu0.kern.mode_ticks::idle                   0      0.00%    100.00% # number of ticks spent at the given mode
system.cpu0.kern.swap_context                      12                       # number of times the context was actually changed
system.cpu0.dcache.tags.replacements             4846                       # number of replacements
system.cpu0.dcache.tags.tagsinuse          504.031046                       # Cycle average of tags in use
system.cpu0.dcache.tags.total_refs              55585                       # Total number of references to valid blocks.
system.cpu0.dcache.tags.sampled_refs             4846                       # Sample count of references to valid blocks.
system.cpu0.dcache.tags.avg_refs            11.470285                       # Average number of references to valid blocks.
system.cpu0.dcache.tags.warmup_cycle                0                       # Cycle when the warmup percentage was hit.
system.cpu0.dcache.tags.occ_blocks::cpu0.data    24.873957                       # Average occupied blocks per requestor
system.cpu0.dcache.tags.occ_blocks::switch_cpus0.data   479.157090                       # Average occupied blocks per requestor
system.cpu0.dcache.tags.occ_percent::cpu0.data     0.048582                       # Average percentage of cache occupancy
system.cpu0.dcache.tags.occ_percent::switch_cpus0.data     0.935854                       # Average percentage of cache occupancy
system.cpu0.dcache.tags.occ_percent::total     0.984436                       # Average percentage of cache occupancy
system.cpu0.dcache.tags.occ_task_id_blocks::1024          499                       # Occupied blocks per task id
system.cpu0.dcache.tags.age_task_id_blocks_1024::2          490                       # Occupied blocks per task id
system.cpu0.dcache.tags.age_task_id_blocks_1024::3            9                       # Occupied blocks per task id
system.cpu0.dcache.tags.occ_task_id_percent::1024     0.974609                       # Percentage of cache occupancy per task id
system.cpu0.dcache.tags.tag_accesses           289409                       # Number of tag accesses
system.cpu0.dcache.tags.data_accesses          289409                       # Number of data accesses
system.cpu0.dcache.ReadReq_hits::switch_cpus0.data        32846                       # number of ReadReq hits
system.cpu0.dcache.ReadReq_hits::total          32846                       # number of ReadReq hits
system.cpu0.dcache.WriteReq_hits::switch_cpus0.data        13618                       # number of WriteReq hits
system.cpu0.dcache.WriteReq_hits::total         13618                       # number of WriteReq hits
system.cpu0.dcache.LoadLockedReq_hits::switch_cpus0.data          533                       # number of LoadLockedReq hits
system.cpu0.dcache.LoadLockedReq_hits::total          533                       # number of LoadLockedReq hits
system.cpu0.dcache.StoreCondReq_hits::switch_cpus0.data          596                       # number of StoreCondReq hits
system.cpu0.dcache.StoreCondReq_hits::total          596                       # number of StoreCondReq hits
system.cpu0.dcache.demand_hits::switch_cpus0.data        46464                       # number of demand (read+write) hits
system.cpu0.dcache.demand_hits::total           46464                       # number of demand (read+write) hits
system.cpu0.dcache.overall_hits::switch_cpus0.data        46464                       # number of overall hits
system.cpu0.dcache.overall_hits::total          46464                       # number of overall hits
system.cpu0.dcache.ReadReq_misses::switch_cpus0.data         8883                       # number of ReadReq misses
system.cpu0.dcache.ReadReq_misses::total         8883                       # number of ReadReq misses
system.cpu0.dcache.WriteReq_misses::switch_cpus0.data        14474                       # number of WriteReq misses
system.cpu0.dcache.WriteReq_misses::total        14474                       # number of WriteReq misses
system.cpu0.dcache.LoadLockedReq_misses::switch_cpus0.data          157                       # number of LoadLockedReq misses
system.cpu0.dcache.LoadLockedReq_misses::total          157                       # number of LoadLockedReq misses
system.cpu0.dcache.StoreCondReq_misses::switch_cpus0.data           23                       # number of StoreCondReq misses
system.cpu0.dcache.StoreCondReq_misses::total           23                       # number of StoreCondReq misses
system.cpu0.dcache.demand_misses::switch_cpus0.data        23357                       # number of demand (read+write) misses
system.cpu0.dcache.demand_misses::total         23357                       # number of demand (read+write) misses
system.cpu0.dcache.overall_misses::switch_cpus0.data        23357                       # number of overall misses
system.cpu0.dcache.overall_misses::total        23357                       # number of overall misses
system.cpu0.dcache.ReadReq_miss_latency::switch_cpus0.data    527287223                       # number of ReadReq miss cycles
system.cpu0.dcache.ReadReq_miss_latency::total    527287223                       # number of ReadReq miss cycles
system.cpu0.dcache.WriteReq_miss_latency::switch_cpus0.data   1075841229                       # number of WriteReq miss cycles
system.cpu0.dcache.WriteReq_miss_latency::total   1075841229                       # number of WriteReq miss cycles
system.cpu0.dcache.LoadLockedReq_miss_latency::switch_cpus0.data     10658500                       # number of LoadLockedReq miss cycles
system.cpu0.dcache.LoadLockedReq_miss_latency::total     10658500                       # number of LoadLockedReq miss cycles
system.cpu0.dcache.StoreCondReq_miss_latency::switch_cpus0.data       222503                       # number of StoreCondReq miss cycles
system.cpu0.dcache.StoreCondReq_miss_latency::total       222503                       # number of StoreCondReq miss cycles
system.cpu0.dcache.demand_miss_latency::switch_cpus0.data   1603128452                       # number of demand (read+write) miss cycles
system.cpu0.dcache.demand_miss_latency::total   1603128452                       # number of demand (read+write) miss cycles
system.cpu0.dcache.overall_miss_latency::switch_cpus0.data   1603128452                       # number of overall miss cycles
system.cpu0.dcache.overall_miss_latency::total   1603128452                       # number of overall miss cycles
system.cpu0.dcache.ReadReq_accesses::switch_cpus0.data        41729                       # number of ReadReq accesses(hits+misses)
system.cpu0.dcache.ReadReq_accesses::total        41729                       # number of ReadReq accesses(hits+misses)
system.cpu0.dcache.WriteReq_accesses::switch_cpus0.data        28092                       # number of WriteReq accesses(hits+misses)
system.cpu0.dcache.WriteReq_accesses::total        28092                       # number of WriteReq accesses(hits+misses)
system.cpu0.dcache.LoadLockedReq_accesses::switch_cpus0.data          690                       # number of LoadLockedReq accesses(hits+misses)
system.cpu0.dcache.LoadLockedReq_accesses::total          690                       # number of LoadLockedReq accesses(hits+misses)
system.cpu0.dcache.StoreCondReq_accesses::switch_cpus0.data          619                       # number of StoreCondReq accesses(hits+misses)
system.cpu0.dcache.StoreCondReq_accesses::total          619                       # number of StoreCondReq accesses(hits+misses)
system.cpu0.dcache.demand_accesses::switch_cpus0.data        69821                       # number of demand (read+write) accesses
system.cpu0.dcache.demand_accesses::total        69821                       # number of demand (read+write) accesses
system.cpu0.dcache.overall_accesses::switch_cpus0.data        69821                       # number of overall (read+write) accesses
system.cpu0.dcache.overall_accesses::total        69821                       # number of overall (read+write) accesses
system.cpu0.dcache.ReadReq_miss_rate::switch_cpus0.data     0.212874                       # miss rate for ReadReq accesses
system.cpu0.dcache.ReadReq_miss_rate::total     0.212874                       # miss rate for ReadReq accesses
system.cpu0.dcache.WriteReq_miss_rate::switch_cpus0.data     0.515236                       # miss rate for WriteReq accesses
system.cpu0.dcache.WriteReq_miss_rate::total     0.515236                       # miss rate for WriteReq accesses
system.cpu0.dcache.LoadLockedReq_miss_rate::switch_cpus0.data     0.227536                       # miss rate for LoadLockedReq accesses
system.cpu0.dcache.LoadLockedReq_miss_rate::total     0.227536                       # miss rate for LoadLockedReq accesses
system.cpu0.dcache.StoreCondReq_miss_rate::switch_cpus0.data     0.037157                       # miss rate for StoreCondReq accesses
system.cpu0.dcache.StoreCondReq_miss_rate::total     0.037157                       # miss rate for StoreCondReq accesses
system.cpu0.dcache.demand_miss_rate::switch_cpus0.data     0.334527                       # miss rate for demand accesses
system.cpu0.dcache.demand_miss_rate::total     0.334527                       # miss rate for demand accesses
system.cpu0.dcache.overall_miss_rate::switch_cpus0.data     0.334527                       # miss rate for overall accesses
system.cpu0.dcache.overall_miss_rate::total     0.334527                       # miss rate for overall accesses
system.cpu0.dcache.ReadReq_avg_miss_latency::switch_cpus0.data 59359.138016                       # average ReadReq miss latency
system.cpu0.dcache.ReadReq_avg_miss_latency::total 59359.138016                       # average ReadReq miss latency
system.cpu0.dcache.WriteReq_avg_miss_latency::switch_cpus0.data 74329.226821                       # average WriteReq miss latency
system.cpu0.dcache.WriteReq_avg_miss_latency::total 74329.226821                       # average WriteReq miss latency
system.cpu0.dcache.LoadLockedReq_avg_miss_latency::switch_cpus0.data 67888.535032                       # average LoadLockedReq miss latency
system.cpu0.dcache.LoadLockedReq_avg_miss_latency::total 67888.535032                       # average LoadLockedReq miss latency
system.cpu0.dcache.StoreCondReq_avg_miss_latency::switch_cpus0.data  9674.043478                       # average StoreCondReq miss latency
system.cpu0.dcache.StoreCondReq_avg_miss_latency::total  9674.043478                       # average StoreCondReq miss latency
system.cpu0.dcache.demand_avg_miss_latency::switch_cpus0.data 68635.888684                       # average overall miss latency
system.cpu0.dcache.demand_avg_miss_latency::total 68635.888684                       # average overall miss latency
system.cpu0.dcache.overall_avg_miss_latency::switch_cpus0.data 68635.888684                       # average overall miss latency
system.cpu0.dcache.overall_avg_miss_latency::total 68635.888684                       # average overall miss latency
system.cpu0.dcache.blocked_cycles::no_mshrs        92432                       # number of cycles access was blocked
system.cpu0.dcache.blocked_cycles::no_targets           19                       # number of cycles access was blocked
system.cpu0.dcache.blocked::no_mshrs             1955                       # number of cycles access was blocked
system.cpu0.dcache.blocked::no_targets              1                       # number of cycles access was blocked
system.cpu0.dcache.avg_blocked_cycles::no_mshrs    47.279795                       # average number of cycles each access was blocked
system.cpu0.dcache.avg_blocked_cycles::no_targets           19                       # average number of cycles each access was blocked
system.cpu0.dcache.fast_writes                      0                       # number of fast writes performed
system.cpu0.dcache.cache_copies                     0                       # number of cache copies performed
system.cpu0.dcache.writebacks::writebacks         2799                       # number of writebacks
system.cpu0.dcache.writebacks::total             2799                       # number of writebacks
system.cpu0.dcache.ReadReq_mshr_hits::switch_cpus0.data         6103                       # number of ReadReq MSHR hits
system.cpu0.dcache.ReadReq_mshr_hits::total         6103                       # number of ReadReq MSHR hits
system.cpu0.dcache.WriteReq_mshr_hits::switch_cpus0.data        12393                       # number of WriteReq MSHR hits
system.cpu0.dcache.WriteReq_mshr_hits::total        12393                       # number of WriteReq MSHR hits
system.cpu0.dcache.LoadLockedReq_mshr_hits::switch_cpus0.data           57                       # number of LoadLockedReq MSHR hits
system.cpu0.dcache.LoadLockedReq_mshr_hits::total           57                       # number of LoadLockedReq MSHR hits
system.cpu0.dcache.demand_mshr_hits::switch_cpus0.data        18496                       # number of demand (read+write) MSHR hits
system.cpu0.dcache.demand_mshr_hits::total        18496                       # number of demand (read+write) MSHR hits
system.cpu0.dcache.overall_mshr_hits::switch_cpus0.data        18496                       # number of overall MSHR hits
system.cpu0.dcache.overall_mshr_hits::total        18496                       # number of overall MSHR hits
system.cpu0.dcache.ReadReq_mshr_misses::switch_cpus0.data         2780                       # number of ReadReq MSHR misses
system.cpu0.dcache.ReadReq_mshr_misses::total         2780                       # number of ReadReq MSHR misses
system.cpu0.dcache.WriteReq_mshr_misses::switch_cpus0.data         2081                       # number of WriteReq MSHR misses
system.cpu0.dcache.WriteReq_mshr_misses::total         2081                       # number of WriteReq MSHR misses
system.cpu0.dcache.LoadLockedReq_mshr_misses::switch_cpus0.data          100                       # number of LoadLockedReq MSHR misses
system.cpu0.dcache.LoadLockedReq_mshr_misses::total          100                       # number of LoadLockedReq MSHR misses
system.cpu0.dcache.StoreCondReq_mshr_misses::switch_cpus0.data           23                       # number of StoreCondReq MSHR misses
system.cpu0.dcache.StoreCondReq_mshr_misses::total           23                       # number of StoreCondReq MSHR misses
system.cpu0.dcache.demand_mshr_misses::switch_cpus0.data         4861                       # number of demand (read+write) MSHR misses
system.cpu0.dcache.demand_mshr_misses::total         4861                       # number of demand (read+write) MSHR misses
system.cpu0.dcache.overall_mshr_misses::switch_cpus0.data         4861                       # number of overall MSHR misses
system.cpu0.dcache.overall_mshr_misses::total         4861                       # number of overall MSHR misses
system.cpu0.dcache.WriteReq_mshr_uncacheable::switch_cpus0.data            3                       # number of WriteReq MSHR uncacheable
system.cpu0.dcache.WriteReq_mshr_uncacheable::total            3                       # number of WriteReq MSHR uncacheable
system.cpu0.dcache.overall_mshr_uncacheable_misses::switch_cpus0.data            3                       # number of overall MSHR uncacheable misses
system.cpu0.dcache.overall_mshr_uncacheable_misses::total            3                       # number of overall MSHR uncacheable misses
system.cpu0.dcache.ReadReq_mshr_miss_latency::switch_cpus0.data    194508276                       # number of ReadReq MSHR miss cycles
system.cpu0.dcache.ReadReq_mshr_miss_latency::total    194508276                       # number of ReadReq MSHR miss cycles
system.cpu0.dcache.WriteReq_mshr_miss_latency::switch_cpus0.data    171713556                       # number of WriteReq MSHR miss cycles
system.cpu0.dcache.WriteReq_mshr_miss_latency::total    171713556                       # number of WriteReq MSHR miss cycles
system.cpu0.dcache.LoadLockedReq_mshr_miss_latency::switch_cpus0.data      6983250                       # number of LoadLockedReq MSHR miss cycles
system.cpu0.dcache.LoadLockedReq_mshr_miss_latency::total      6983250                       # number of LoadLockedReq MSHR miss cycles
system.cpu0.dcache.StoreCondReq_mshr_miss_latency::switch_cpus0.data       187997                       # number of StoreCondReq MSHR miss cycles
system.cpu0.dcache.StoreCondReq_mshr_miss_latency::total       187997                       # number of StoreCondReq MSHR miss cycles
system.cpu0.dcache.demand_mshr_miss_latency::switch_cpus0.data    366221832                       # number of demand (read+write) MSHR miss cycles
system.cpu0.dcache.demand_mshr_miss_latency::total    366221832                       # number of demand (read+write) MSHR miss cycles
system.cpu0.dcache.overall_mshr_miss_latency::switch_cpus0.data    366221832                       # number of overall MSHR miss cycles
system.cpu0.dcache.overall_mshr_miss_latency::total    366221832                       # number of overall MSHR miss cycles
system.cpu0.dcache.WriteReq_mshr_uncacheable_latency::switch_cpus0.data       671500                       # number of WriteReq MSHR uncacheable cycles
system.cpu0.dcache.WriteReq_mshr_uncacheable_latency::total       671500                       # number of WriteReq MSHR uncacheable cycles
system.cpu0.dcache.overall_mshr_uncacheable_latency::switch_cpus0.data       671500                       # number of overall MSHR uncacheable cycles
system.cpu0.dcache.overall_mshr_uncacheable_latency::total       671500                       # number of overall MSHR uncacheable cycles
system.cpu0.dcache.ReadReq_mshr_miss_rate::switch_cpus0.data     0.066620                       # mshr miss rate for ReadReq accesses
system.cpu0.dcache.ReadReq_mshr_miss_rate::total     0.066620                       # mshr miss rate for ReadReq accesses
system.cpu0.dcache.WriteReq_mshr_miss_rate::switch_cpus0.data     0.074078                       # mshr miss rate for WriteReq accesses
system.cpu0.dcache.WriteReq_mshr_miss_rate::total     0.074078                       # mshr miss rate for WriteReq accesses
system.cpu0.dcache.LoadLockedReq_mshr_miss_rate::switch_cpus0.data     0.144928                       # mshr miss rate for LoadLockedReq accesses
system.cpu0.dcache.LoadLockedReq_mshr_miss_rate::total     0.144928                       # mshr miss rate for LoadLockedReq accesses
system.cpu0.dcache.StoreCondReq_mshr_miss_rate::switch_cpus0.data     0.037157                       # mshr miss rate for StoreCondReq accesses
system.cpu0.dcache.StoreCondReq_mshr_miss_rate::total     0.037157                       # mshr miss rate for StoreCondReq accesses
system.cpu0.dcache.demand_mshr_miss_rate::switch_cpus0.data     0.069621                       # mshr miss rate for demand accesses
system.cpu0.dcache.demand_mshr_miss_rate::total     0.069621                       # mshr miss rate for demand accesses
system.cpu0.dcache.overall_mshr_miss_rate::switch_cpus0.data     0.069621                       # mshr miss rate for overall accesses
system.cpu0.dcache.overall_mshr_miss_rate::total     0.069621                       # mshr miss rate for overall accesses
system.cpu0.dcache.ReadReq_avg_mshr_miss_latency::switch_cpus0.data 69967.005755                       # average ReadReq mshr miss latency
system.cpu0.dcache.ReadReq_avg_mshr_miss_latency::total 69967.005755                       # average ReadReq mshr miss latency
system.cpu0.dcache.WriteReq_avg_mshr_miss_latency::switch_cpus0.data 82514.923594                       # average WriteReq mshr miss latency
system.cpu0.dcache.WriteReq_avg_mshr_miss_latency::total 82514.923594                       # average WriteReq mshr miss latency
system.cpu0.dcache.LoadLockedReq_avg_mshr_miss_latency::switch_cpus0.data 69832.500000                       # average LoadLockedReq mshr miss latency
system.cpu0.dcache.LoadLockedReq_avg_mshr_miss_latency::total 69832.500000                       # average LoadLockedReq mshr miss latency
system.cpu0.dcache.StoreCondReq_avg_mshr_miss_latency::switch_cpus0.data  8173.782609                       # average StoreCondReq mshr miss latency
system.cpu0.dcache.StoreCondReq_avg_mshr_miss_latency::total  8173.782609                       # average StoreCondReq mshr miss latency
system.cpu0.dcache.demand_avg_mshr_miss_latency::switch_cpus0.data 75338.784612                       # average overall mshr miss latency
system.cpu0.dcache.demand_avg_mshr_miss_latency::total 75338.784612                       # average overall mshr miss latency
system.cpu0.dcache.overall_avg_mshr_miss_latency::switch_cpus0.data 75338.784612                       # average overall mshr miss latency
system.cpu0.dcache.overall_avg_mshr_miss_latency::total 75338.784612                       # average overall mshr miss latency
system.cpu0.dcache.WriteReq_avg_mshr_uncacheable_latency::switch_cpus0.data 223833.333333                       # average WriteReq mshr uncacheable latency
system.cpu0.dcache.WriteReq_avg_mshr_uncacheable_latency::total 223833.333333                       # average WriteReq mshr uncacheable latency
system.cpu0.dcache.overall_avg_mshr_uncacheable_latency::switch_cpus0.data 223833.333333                       # average overall mshr uncacheable latency
system.cpu0.dcache.overall_avg_mshr_uncacheable_latency::total 223833.333333                       # average overall mshr uncacheable latency
system.cpu0.dcache.no_allocate_misses               0                       # Number of misses that were no-allocate
system.cpu0.icache.tags.replacements             3513                       # number of replacements
system.cpu0.icache.tags.tagsinuse          511.862819                       # Cycle average of tags in use
system.cpu0.icache.tags.total_refs             261159                       # Total number of references to valid blocks.
system.cpu0.icache.tags.sampled_refs             3513                       # Sample count of references to valid blocks.
system.cpu0.icache.tags.avg_refs            74.340734                       # Average number of references to valid blocks.
system.cpu0.icache.tags.warmup_cycle                0                       # Cycle when the warmup percentage was hit.
system.cpu0.icache.tags.occ_blocks::cpu0.inst    20.012395                       # Average occupied blocks per requestor
system.cpu0.icache.tags.occ_blocks::switch_cpus0.inst   491.850425                       # Average occupied blocks per requestor
system.cpu0.icache.tags.occ_percent::cpu0.inst     0.039087                       # Average percentage of cache occupancy
system.cpu0.icache.tags.occ_percent::switch_cpus0.inst     0.960645                       # Average percentage of cache occupancy
system.cpu0.icache.tags.occ_percent::total     0.999732                       # Average percentage of cache occupancy
system.cpu0.icache.tags.occ_task_id_blocks::1024          512                       # Occupied blocks per task id
system.cpu0.icache.tags.age_task_id_blocks_1024::2          469                       # Occupied blocks per task id
system.cpu0.icache.tags.age_task_id_blocks_1024::3           43                       # Occupied blocks per task id
system.cpu0.icache.tags.occ_task_id_percent::1024            1                       # Percentage of cache occupancy per task id
system.cpu0.icache.tags.tag_accesses            86869                       # Number of tag accesses
system.cpu0.icache.tags.data_accesses           86869                       # Number of data accesses
system.cpu0.icache.ReadReq_hits::switch_cpus0.inst        37360                       # number of ReadReq hits
system.cpu0.icache.ReadReq_hits::total          37360                       # number of ReadReq hits
system.cpu0.icache.demand_hits::switch_cpus0.inst        37360                       # number of demand (read+write) hits
system.cpu0.icache.demand_hits::total           37360                       # number of demand (read+write) hits
system.cpu0.icache.overall_hits::switch_cpus0.inst        37360                       # number of overall hits
system.cpu0.icache.overall_hits::total          37360                       # number of overall hits
system.cpu0.icache.ReadReq_misses::switch_cpus0.inst         4315                       # number of ReadReq misses
system.cpu0.icache.ReadReq_misses::total         4315                       # number of ReadReq misses
system.cpu0.icache.demand_misses::switch_cpus0.inst         4315                       # number of demand (read+write) misses
system.cpu0.icache.demand_misses::total          4315                       # number of demand (read+write) misses
system.cpu0.icache.overall_misses::switch_cpus0.inst         4315                       # number of overall misses
system.cpu0.icache.overall_misses::total         4315                       # number of overall misses
system.cpu0.icache.ReadReq_miss_latency::switch_cpus0.inst    311382072                       # number of ReadReq miss cycles
system.cpu0.icache.ReadReq_miss_latency::total    311382072                       # number of ReadReq miss cycles
system.cpu0.icache.demand_miss_latency::switch_cpus0.inst    311382072                       # number of demand (read+write) miss cycles
system.cpu0.icache.demand_miss_latency::total    311382072                       # number of demand (read+write) miss cycles
system.cpu0.icache.overall_miss_latency::switch_cpus0.inst    311382072                       # number of overall miss cycles
system.cpu0.icache.overall_miss_latency::total    311382072                       # number of overall miss cycles
system.cpu0.icache.ReadReq_accesses::switch_cpus0.inst        41675                       # number of ReadReq accesses(hits+misses)
system.cpu0.icache.ReadReq_accesses::total        41675                       # number of ReadReq accesses(hits+misses)
system.cpu0.icache.demand_accesses::switch_cpus0.inst        41675                       # number of demand (read+write) accesses
system.cpu0.icache.demand_accesses::total        41675                       # number of demand (read+write) accesses
[...]
system.switch_cpus3.fp_regfile_reads              154                       # number of floating regfile reads
system.switch_cpus3.fp_regfile_writes             173                       # number of floating regfile writes
system.switch_cpus3.misc_regfile_reads          51841                       # number of misc regfile reads
system.switch_cpus3.misc_regfile_writes          6477                       # number of misc regfile writes
system.tol2bus.trans_dist::ReadReq             426028                       # Transaction distribution
system.tol2bus.trans_dist::ReadResp            426018                       # Transaction distribution
system.tol2bus.trans_dist::WriteReq               430                       # Transaction distribution
system.tol2bus.trans_dist::WriteResp              430                       # Transaction distribution
system.tol2bus.trans_dist::Writeback           309758                       # Transaction distribution
system.tol2bus.trans_dist::WriteInvalidateReq         1409                       # Transaction distribution
system.tol2bus.trans_dist::UpgradeReq             711                       # Transaction distribution
system.tol2bus.trans_dist::SCUpgradeReq           339                       # Transaction distribution
system.tol2bus.trans_dist::UpgradeResp           1050                       # Transaction distribution
system.tol2bus.trans_dist::SCUpgradeFailReq            3                       # Transaction distribution
system.tol2bus.trans_dist::UpgradeFailResp            3                       # Transaction distribution
system.tol2bus.trans_dist::ReadExReq            39274                       # Transaction distribution
system.tol2bus.trans_dist::ReadExResp           39274                       # Transaction distribution
system.tol2bus.trans_dist::BadAddressError            3                       # Transaction distribution
system.tol2bus.pkt_count_system.cpu0.icache.mem_side::system.l2.cpu_side        13761                       # Packet count per connected master and slave (bytes)
system.tol2bus.pkt_count_system.cpu0.dcache.mem_side::system.l2.cpu_side        35099                       # Packet count per connected master and slave (bytes)
system.tol2bus.pkt_count_system.cpu1.icache.mem_side::system.l2.cpu_side         1568                       # Packet count per connected master and slave (bytes)
system.tol2bus.pkt_count_system.cpu1.dcache.mem_side::system.l2.cpu_side          719                       # Packet count per connected master and slave (bytes)
system.tol2bus.pkt_count_system.cpu2.icache.mem_side::system.l2.cpu_side       124096                       # Packet count per connected master and slave (bytes)
system.tol2bus.pkt_count_system.cpu2.dcache.mem_side::system.l2.cpu_side      1052962                       # Packet count per connected master and slave (bytes)
system.tol2bus.pkt_count_system.cpu3.icache.mem_side::system.l2.cpu_side         5572                       # Packet count per connected master and slave (bytes)
system.tol2bus.pkt_count_system.cpu3.dcache.mem_side::system.l2.cpu_side         7404                       # Packet count per connected master and slave (bytes)
system.tol2bus.pkt_count::total               1241181                       # Packet count per connected master and slave (bytes)
system.tol2bus.pkt_size_system.cpu0.icache.mem_side::system.l2.cpu_side       440192                       # Cumulative packet size per connected master and slave (bytes)
system.tol2bus.pkt_size_system.cpu0.dcache.mem_side::system.l2.cpu_side      1302351                       # Cumulative packet size per connected master and slave (bytes)
system.tol2bus.pkt_size_system.cpu1.icache.mem_side::system.l2.cpu_side        50176                       # Cumulative packet size per connected master and slave (bytes)
system.tol2bus.pkt_size_system.cpu1.dcache.mem_side::system.l2.cpu_side        12616                       # Cumulative packet size per connected master and slave (bytes)
system.tol2bus.pkt_size_system.cpu2.icache.mem_side::system.l2.cpu_side      3967488                       # Cumulative packet size per connected master and slave (bytes)
system.tol2bus.pkt_size_system.cpu2.dcache.mem_side::system.l2.cpu_side     43260306                       # Cumulative packet size per connected master and slave (bytes)
system.tol2bus.pkt_size_system.cpu3.icache.mem_side::system.l2.cpu_side       178304                       # Cumulative packet size per connected master and slave (bytes)
system.tol2bus.pkt_size_system.cpu3.dcache.mem_side::system.l2.cpu_side       248920                       # Cumulative packet size per connected master and slave (bytes)
system.tol2bus.pkt_size::total               49460353                       # Cumulative packet size per connected master and slave (bytes)
system.tol2bus.snoops                            3549                       # Total snoops (count)
system.tol2bus.snoop_fanout::samples           777952                       # Request fanout histogram
system.tol2bus.snoop_fanout::mean            7.001820                       # Request fanout histogram
system.tol2bus.snoop_fanout::stdev           0.042625                       # Request fanout histogram
system.tol2bus.snoop_fanout::underflows             0      0.00%      0.00% # Request fanout histogram
system.tol2bus.snoop_fanout::0                      0      0.00%      0.00% # Request fanout histogram
system.tol2bus.snoop_fanout::1                      0      0.00%      0.00% # Request fanout histogram
system.tol2bus.snoop_fanout::2                      0      0.00%      0.00% # Request fanout histogram
system.tol2bus.snoop_fanout::3                      0      0.00%      0.00% # Request fanout histogram
system.tol2bus.snoop_fanout::4                      0      0.00%      0.00% # Request fanout histogram
system.tol2bus.snoop_fanout::5                      0      0.00%      0.00% # Request fanout histogram
system.tol2bus.snoop_fanout::6                      0      0.00%      0.00% # Request fanout histogram
system.tol2bus.snoop_fanout::7                 776536     99.82%     99.82% # Request fanout histogram
system.tol2bus.snoop_fanout::8                   1416      0.18%    100.00% # Request fanout histogram
system.tol2bus.snoop_fanout::overflows              0      0.00%    100.00% # Request fanout histogram
system.tol2bus.snoop_fanout::min_value              7                       # Request fanout histogram
system.tol2bus.snoop_fanout::max_value              8                       # Request fanout histogram
system.tol2bus.snoop_fanout::total             777952                       # Request fanout histogram
system.tol2bus.reqLayer0.occupancy          698241998                       # Layer occupancy (ticks)
system.tol2bus.reqLayer0.utilization              1.8                       # Layer utilization (%)
system.tol2bus.respLayer0.occupancy          11163785                       # Layer occupancy (ticks)
system.tol2bus.respLayer0.utilization             0.0                       # Layer utilization (%)
system.tol2bus.respLayer1.occupancy          21491893                       # Layer occupancy (ticks)
system.tol2bus.respLayer1.utilization             0.1                       # Layer utilization (%)
system.tol2bus.respLayer2.occupancy           1320675                       # Layer occupancy (ticks)
system.tol2bus.respLayer2.utilization             0.0                       # Layer utilization (%)
system.tol2bus.respLayer3.occupancy            571243                       # Layer occupancy (ticks)
system.tol2bus.respLayer3.utilization             0.0                       # Layer utilization (%)
system.tol2bus.respLayer4.occupancy          99274858                       # Layer occupancy (ticks)
system.tol2bus.respLayer4.utilization             0.3                       # Layer utilization (%)
system.tol2bus.respLayer5.occupancy         623344819                       # Layer occupancy (ticks)
system.tol2bus.respLayer5.utilization             1.6                       # Layer utilization (%)
system.tol2bus.respLayer6.occupancy           4511389                       # Layer occupancy (ticks)
system.tol2bus.respLayer6.utilization             0.0                       # Layer utilization (%)
system.tol2bus.respLayer7.occupancy           4939268                       # Layer occupancy (ticks)
system.tol2bus.respLayer7.utilization             0.0                       # Layer utilization (%)
system.tsunami.ethernet.descDMAReads                0                       # Number of descriptors the device read w/ DMA
system.tsunami.ethernet.descDMAWrites               0                       # Number of descriptors the device wrote w/ DMA
system.tsunami.ethernet.descDmaReadBytes            0                       # number of descriptor bytes read w/ DMA
system.tsunami.ethernet.descDmaWriteBytes            0                       # number of descriptor bytes write w/ DMA
system.tsunami.ethernet.postedSwi                   0                       # number of software interrupts posted to CPU
system.tsunami.ethernet.coalescedSwi              nan                       # average number of Swi's coalesced into each post
system.tsunami.ethernet.totalSwi                    0                       # total number of Swi written to ISR
system.tsunami.ethernet.postedRxIdle                0                       # number of rxIdle interrupts posted to CPU
system.tsunami.ethernet.coalescedRxIdle           nan                       # average number of RxIdle's coalesced into each post
system.tsunami.ethernet.totalRxIdle                 0                       # total number of RxIdle written to ISR
system.tsunami.ethernet.postedRxOk                  0                       # number of RxOk interrupts posted to CPU
system.tsunami.ethernet.coalescedRxOk             nan                       # average number of RxOk's coalesced into each post
system.tsunami.ethernet.totalRxOk                   0                       # total number of RxOk written to ISR
system.tsunami.ethernet.postedRxDesc                0                       # number of RxDesc interrupts posted to CPU
system.tsunami.ethernet.coalescedRxDesc           nan                       # average number of RxDesc's coalesced into each post
system.tsunami.ethernet.totalRxDesc                 0                       # total number of RxDesc written to ISR
system.tsunami.ethernet.postedTxOk                  0                       # number of TxOk interrupts posted to CPU
system.tsunami.ethernet.coalescedTxOk             nan                       # average number of TxOk's coalesced into each post
system.tsunami.ethernet.totalTxOk                   0                       # total number of TxOk written to ISR
system.tsunami.ethernet.postedTxIdle                0                       # number of TxIdle interrupts posted to CPU
system.tsunami.ethernet.coalescedTxIdle           nan                       # average number of TxIdle's coalesced into each post
system.tsunami.ethernet.totalTxIdle                 0                       # total number of TxIdle written to ISR
system.tsunami.ethernet.postedTxDesc                0                       # number of TxDesc interrupts posted to CPU
system.tsunami.ethernet.coalescedTxDesc           nan                       # average number of TxDesc's coalesced into each post
system.tsunami.ethernet.totalTxDesc                 0                       # total number of TxDesc written to ISR
system.tsunami.ethernet.postedRxOrn                 0                       # number of RxOrn posted to CPU
system.tsunami.ethernet.coalescedRxOrn            nan                       # average number of RxOrn's coalesced into each post
system.tsunami.ethernet.totalRxOrn                  0                       # total number of RxOrn written to ISR
system.tsunami.ethernet.coalescedTotal            nan                       # average number of interrupts coalesced into each post
system.tsunami.ethernet.postedInterrupts            0                       # number of posts to CPU
system.tsunami.ethernet.droppedPackets              0                       # number of packets dropped
system.switch_cpus0.kern.inst.arm                   0                       # number of arm instructions executed
system.switch_cpus0.kern.inst.quiesce               0                       # number of quiesce instructions executed
system.switch_cpus0.kern.inst.hwrei                 0                       # number of hwrei instructions executed
system.switch_cpus0.kern.mode_switch::kernel            0                       # number of protection mode switches
system.switch_cpus0.kern.mode_switch::user            0                       # number of protection mode switches
system.switch_cpus0.kern.mode_switch::idle            0                       # number of protection mode switches
system.switch_cpus0.kern.mode_good::kernel            0                      
system.switch_cpus0.kern.mode_good::user            0                      
system.switch_cpus0.kern.mode_good::idle            0                      
system.switch_cpus0.kern.mode_switch_good::kernel          nan                       # fraction of useful protection mode switches
system.switch_cpus0.kern.mode_switch_good::user          nan                       # fraction of useful protection mode switches
system.switch_cpus0.kern.mode_switch_good::idle          nan                       # fraction of useful protection mode switches
system.switch_cpus0.kern.mode_switch_good::total          nan                       # fraction of useful protection mode switches
system.switch_cpus0.kern.mode_ticks::kernel            0                       # number of ticks spent at the given mode
system.switch_cpus0.kern.mode_ticks::user            0                       # number of ticks spent at the given mode
system.switch_cpus0.kern.mode_ticks::idle            0                       # number of ticks spent at the given mode
system.switch_cpus0.kern.swap_context               0                       # number of times the context was actually changed
system.switch_cpus1.kern.inst.arm                   0                       # number of arm instructions executed
system.switch_cpus1.kern.inst.quiesce               0                       # number of quiesce instructions executed
system.switch_cpus1.kern.inst.hwrei                 0                       # number of hwrei instructions executed
system.switch_cpus1.kern.mode_switch::kernel            0                       # number of protection mode switches
system.switch_cpus1.kern.mode_switch::user            0                       # number of protection mode switches
system.switch_cpus1.kern.mode_switch::idle            0                       # number of protection mode switches
system.switch_cpus1.kern.mode_good::kernel            0                      
system.switch_cpus1.kern.mode_good::user            0                      
system.switch_cpus1.kern.mode_good::idle            0                      
system.switch_cpus1.kern.mode_switch_good::kernel          nan                       # fraction of useful protection mode switches
system.switch_cpus1.kern.mode_switch_good::user          nan                       # fraction of useful protection mode switches
system.switch_cpus1.kern.mode_switch_good::idle          nan                       # fraction of useful protection mode switches
system.switch_cpus1.kern.mode_switch_good::total          nan                       # fraction of useful protection mode switches
system.switch_cpus1.kern.mode_ticks::kernel            0                       # number of ticks spent at the given mode
system.switch_cpus1.kern.mode_ticks::user            0                       # number of ticks spent at the given mode
system.switch_cpus1.kern.mode_ticks::idle            0                       # number of ticks spent at the given mode
system.switch_cpus1.kern.swap_context               0                       # number of times the context was actually changed
system.switch_cpus2.kern.inst.arm                   0                       # number of arm instructions executed
system.switch_cpus2.kern.inst.quiesce               0                       # number of quiesce instructions executed
system.switch_cpus2.kern.inst.hwrei                 0                       # number of hwrei instructions executed
system.switch_cpus2.kern.mode_switch::kernel            0                       # number of protection mode switches
system.switch_cpus2.kern.mode_switch::user            0                       # number of protection mode switches
system.switch_cpus2.kern.mode_switch::idle            0                       # number of protection mode switches
system.switch_cpus2.kern.mode_good::kernel            0                      
system.switch_cpus2.kern.mode_good::user            0                      
system.switch_cpus2.kern.mode_good::idle            0                      
system.switch_cpus2.kern.mode_switch_good::kernel          nan                       # fraction of useful protection mode switches
system.switch_cpus2.kern.mode_switch_good::user          nan                       # fraction of useful protection mode switches
system.switch_cpus2.kern.mode_switch_good::idle          nan                       # fraction of useful protection mode switches
system.switch_cpus2.kern.mode_switch_good::total          nan                       # fraction of useful protection mode switches
system.switch_cpus2.kern.mode_ticks::kernel            0                       # number of ticks spent at the given mode
system.switch_cpus2.kern.mode_ticks::user            0                       # number of ticks spent at the given mode
system.switch_cpus2.kern.mode_ticks::idle            0                       # number of ticks spent at the given mode
system.switch_cpus2.kern.swap_context               0                       # number of times the context was actually changed
system.switch_cpus3.kern.inst.arm                   0                       # number of arm instructions executed
system.switch_cpus3.kern.inst.quiesce               0                       # number of quiesce instructions executed
system.switch_cpus3.kern.inst.hwrei                 0                       # number of hwrei instructions executed
system.switch_cpus3.kern.mode_switch::kernel            0                       # number of protection mode switches
system.switch_cpus3.kern.mode_switch::user            0                       # number of protection mode switches
system.switch_cpus3.kern.mode_switch::idle            0                       # number of protection mode switches
system.switch_cpus3.kern.mode_good::kernel            0                      
system.switch_cpus3.kern.mode_good::user            0                      
system.switch_cpus3.kern.mode_good::idle            0                      
system.switch_cpus3.kern.mode_switch_good::kernel          nan                       # fraction of useful protection mode switches
system.switch_cpus3.kern.mode_switch_good::user          nan                       # fraction of useful protection mode switches
system.switch_cpus3.kern.mode_switch_good::idle          nan                       # fraction of useful protection mode switches
system.switch_cpus3.kern.mode_switch_good::total          nan                       # fraction of useful protection mode switches
system.switch_cpus3.kern.mode_ticks::kernel            0                       # number of ticks spent at the given mode
system.switch_cpus3.kern.mode_ticks::user            0                       # number of ticks spent at the given mode
system.switch_cpus3.kern.mode_ticks::idle            0                       # number of ticks spent at the given mode
system.switch_cpus3.kern.swap_context               0                       # number of times the context was actually changed

---------- End Simulation Statistics   ----------
