
---------- Begin Simulation Statistics ----------
sim_seconds                                  0.001216                       # Number of seconds simulated
sim_ticks                                  1215842500                       # Number of ticks simulated
final_tick                               2255657338000                       # Number of ticks from beginning of simulation (restored from checkpoints and never reset)
sim_freq                                 1000000000000                       # Frequency of simulated ticks
host_inst_rate                               30698875                       # Simulator instruction rate (inst/s)
host_op_rate                                 30698803                       # Simulator op (including micro ops) rate (op/s)
host_tick_rate                              380916978                       # Simulator tick rate (ticks/s)
host_mem_usage                                 729108                       # Number of bytes of host memory used
host_seconds                                     3.19                       # Real time elapsed on the host
sim_insts                                    97986787                       # Number of instructions simulated
sim_ops                                      97986787                       # Number of ops (including micro ops) simulated
system.voltage_domain.voltage                       1                       # Voltage in Volts
system.clk_domain.clock                          1000                       # Clock period in ticks
system.mem_ctrls.bytes_read::switch_cpus.inst       454656                       # Number of bytes read from this memory
system.mem_ctrls.bytes_read::switch_cpus.data      1000704                       # Number of bytes read from this memory
system.mem_ctrls.bytes_read::total            1455360                       # Number of bytes read from this memory
system.mem_ctrls.bytes_inst_read::switch_cpus.inst       454656                       # Number of instructions bytes read from this memory
system.mem_ctrls.bytes_inst_read::total        454656                       # Number of instructions bytes read from this memory
system.mem_ctrls.bytes_written::writebacks       606208                       # Number of bytes written to this memory
system.mem_ctrls.bytes_written::total          606208                       # Number of bytes written to this memory
system.mem_ctrls.num_reads::switch_cpus.inst         7104                       # Number of read requests responded to by this memory
system.mem_ctrls.num_reads::switch_cpus.data        15636                       # Number of read requests responded to by this memory
system.mem_ctrls.num_reads::total               22740                       # Number of read requests responded to by this memory
system.mem_ctrls.num_writes::writebacks          9472                       # Number of write requests responded to by this memory
system.mem_ctrls.num_writes::total               9472                       # Number of write requests responded to by this memory
system.mem_ctrls.bw_read::switch_cpus.inst    373943171                       # Total read bandwidth from this memory (bytes/s)
system.mem_ctrls.bw_read::switch_cpus.data    823053973                       # Total read bandwidth from this memory (bytes/s)
system.mem_ctrls.bw_read::total            1196997144                       # Total read bandwidth from this memory (bytes/s)
system.mem_ctrls.bw_inst_read::switch_cpus.inst    373943171                       # Instruction read bandwidth from this memory (bytes/s)
system.mem_ctrls.bw_inst_read::total        373943171                       # Instruction read bandwidth from this memory (bytes/s)
system.mem_ctrls.bw_write::writebacks       498590895                       # Write bandwidth from this memory (bytes/s)
system.mem_ctrls.bw_write::total            498590895                       # Write bandwidth from this memory (bytes/s)
system.mem_ctrls.bw_total::writebacks       498590895                       # Total bandwidth to/from this memory (bytes/s)
system.mem_ctrls.bw_total::switch_cpus.inst    373943171                       # Total bandwidth to/from this memory (bytes/s)
system.mem_ctrls.bw_total::switch_cpus.data    823053973                       # Total bandwidth to/from this memory (bytes/s)
system.mem_ctrls.bw_total::total           1695588039                       # Total bandwidth to/from this memory (bytes/s)
system.mem_ctrls.readReqs                       22740                       # Number of read requests accepted
system.mem_ctrls.writeReqs                       9472                       # Number of write requests accepted
system.mem_ctrls.readBursts                     22740                       # Number of DRAM read bursts, including those serviced by the write queue
system.mem_ctrls.writeBursts                     9472                       # Number of DRAM write bursts, including those merged in the write queue
system.mem_ctrls.bytesReadDRAM                1452096                       # Total number of bytes read from DRAM
system.mem_ctrls.bytesReadWrQ                    3264                       # Total number of bytes read from write queue
system.mem_ctrls.bytesWritten                  604544                       # Total number of bytes written to DRAM
system.mem_ctrls.bytesReadSys                 1455360                       # Total read bytes from the system interface side
system.mem_ctrls.bytesWrittenSys               606208                       # Total written bytes from the system interface side
system.mem_ctrls.servicedByWrQ                     51                       # Number of DRAM read bursts serviced by the write queue
system.mem_ctrls.mergedWrBursts                     2                       # Number of DRAM write bursts merged with an existing one
system.mem_ctrls.neitherReadNorWriteReqs           11                       # Number of requests that are neither read nor write
system.mem_ctrls.perBankRdBursts::0              1494                       # Per bank write bursts
system.mem_ctrls.perBankRdBursts::1              1085                       # Per bank write bursts
system.mem_ctrls.perBankRdBursts::2              1599                       # Per bank write bursts
system.mem_ctrls.perBankRdBursts::3              1469                       # Per bank write bursts
system.mem_ctrls.perBankRdBursts::4              1580                       # Per bank write bursts
system.mem_ctrls.perBankRdBursts::5              1171                       # Per bank write bursts
system.mem_ctrls.perBankRdBursts::6              1519                       # Per bank write bursts
system.mem_ctrls.perBankRdBursts::7              1152                       # Per bank write bursts
system.mem_ctrls.perBankRdBursts::8              1394                       # Per bank write bursts
system.mem_ctrls.perBankRdBursts::9              1472                       # Per bank write bursts
system.mem_ctrls.perBankRdBursts::10             1385                       # Per bank write bursts
system.mem_ctrls.perBankRdBursts::11             1686                       # Per bank write bursts
system.mem_ctrls.perBankRdBursts::12             1289                       # Per bank write bursts
system.mem_ctrls.perBankRdBursts::13             2092                       # Per bank write bursts
system.mem_ctrls.perBankRdBursts::14             1308                       # Per bank write bursts
system.mem_ctrls.perBankRdBursts::15              994                       # Per bank write bursts
system.mem_ctrls.perBankWrBursts::0               551                       # Per bank write bursts
system.mem_ctrls.perBankWrBursts::1               588                       # Per bank write bursts
system.mem_ctrls.perBankWrBursts::2               873                       # Per bank write bursts
system.mem_ctrls.perBankWrBursts::3              1030                       # Per bank write bursts
system.mem_ctrls.perBankWrBursts::4               903                       # Per bank write bursts
system.mem_ctrls.perBankWrBursts::5               640                       # Per bank write bursts
system.mem_ctrls.perBankWrBursts::6               798                       # Per bank write bursts
system.mem_ctrls.perBankWrBursts::7               426                       # Per bank write bursts
system.mem_ctrls.perBankWrBursts::8               396                       # Per bank write bursts
system.mem_ctrls.perBankWrBursts::9               694                       # Per bank write bursts
system.mem_ctrls.perBankWrBursts::10              297                       # Per bank write bursts
system.mem_ctrls.perBankWrBursts::11              420                       # Per bank write bursts
system.mem_ctrls.perBankWrBursts::12              280                       # Per bank write bursts
system.mem_ctrls.perBankWrBursts::13              522                       # Per bank write bursts
system.mem_ctrls.perBankWrBursts::14              522                       # Per bank write bursts
system.mem_ctrls.perBankWrBursts::15              506                       # Per bank write bursts
system.mem_ctrls.numRdRetry                         0                       # Number of times read queue was full causing retry
system.mem_ctrls.numWrRetry                         0                       # Number of times write queue was full causing retry
system.mem_ctrls.totGap                    1215811000                       # Total gap between requests
system.mem_ctrls.readPktSize::0                     0                       # Read request sizes (log2)
system.mem_ctrls.readPktSize::1                     0                       # Read request sizes (log2)
system.mem_ctrls.readPktSize::2                     0                       # Read request sizes (log2)
system.mem_ctrls.readPktSize::3                     0                       # Read request sizes (log2)
system.mem_ctrls.readPktSize::4                     0                       # Read request sizes (log2)
system.mem_ctrls.readPktSize::5                     0                       # Read request sizes (log2)
system.mem_ctrls.readPktSize::6                 22740                       # Read request sizes (log2)
system.mem_ctrls.writePktSize::0                    0                       # Write request sizes (log2)
system.mem_ctrls.writePktSize::1                    0                       # Write request sizes (log2)
system.mem_ctrls.writePktSize::2                    0                       # Write request sizes (log2)
system.mem_ctrls.writePktSize::3                    0                       # Write request sizes (log2)
system.mem_ctrls.writePktSize::4                    0                       # Write request sizes (log2)
system.mem_ctrls.writePktSize::5                    0                       # Write request sizes (log2)
system.mem_ctrls.writePktSize::6                 9472                       # Write request sizes (log2)
system.mem_ctrls.rdQLenPdf::0                   11609                       # What read queue length does an incoming req see
system.mem_ctrls.rdQLenPdf::1                    6235                       # What read queue length does an incoming req see
system.mem_ctrls.rdQLenPdf::2                    3143                       # What read queue length does an incoming req see
system.mem_ctrls.rdQLenPdf::3                    1653                       # What read queue length does an incoming req see
system.mem_ctrls.rdQLenPdf::4                      47                       # What read queue length does an incoming req see
system.mem_ctrls.rdQLenPdf::5                       2                       # What read queue length does an incoming req see
system.mem_ctrls.rdQLenPdf::6                       0                       # What read queue length does an incoming req see
system.mem_ctrls.rdQLenPdf::7                       0                       # What read queue length does an incoming req see
system.mem_ctrls.rdQLenPdf::8                       0                       # What read queue length does an incoming req see
system.mem_ctrls.rdQLenPdf::9                       0                       # What read queue length does an incoming req see
system.mem_ctrls.rdQLenPdf::10                      0                       # What read queue length does an incoming req see
system.mem_ctrls.rdQLenPdf::11                      0                       # What read queue length does an incoming req see
system.mem_ctrls.rdQLenPdf::12                      0                       # What read queue length does an incoming req see
system.mem_ctrls.rdQLenPdf::13                      0                       # What read queue length does an incoming req see
system.mem_ctrls.rdQLenPdf::14                      0                       # What read queue length does an incoming req see
system.mem_ctrls.rdQLenPdf::15                      0                       # What read queue length does an incoming req see
system.mem_ctrls.rdQLenPdf::16                      0                       # What read queue length does an incoming req see
system.mem_ctrls.rdQLenPdf::17                      0                       # What read queue length does an incoming req see
system.mem_ctrls.rdQLenPdf::18                      0                       # What read queue length does an incoming req see
system.mem_ctrls.rdQLenPdf::19                      0                       # What read queue length does an incoming req see
system.mem_ctrls.rdQLenPdf::20                      0                       # What read queue length does an incoming req see
system.mem_ctrls.rdQLenPdf::21                      0                       # What read queue length does an incoming req see
system.mem_ctrls.rdQLenPdf::22                      0                       # What read queue length does an incoming req see
system.mem_ctrls.rdQLenPdf::23                      0                       # What read queue length does an incoming req see
system.mem_ctrls.rdQLenPdf::24                      0                       # What read queue length does an incoming req see
system.mem_ctrls.rdQLenPdf::25                      0                       # What read queue length does an incoming req see
system.mem_ctrls.rdQLenPdf::26                      0                       # What read queue length does an incoming req see
system.mem_ctrls.rdQLenPdf::27                      0                       # What read queue length does an incoming req see
system.mem_ctrls.rdQLenPdf::28                      0                       # What read queue length does an incoming req see
system.mem_ctrls.rdQLenPdf::29                      0                       # What read queue length does an incoming req see
system.mem_ctrls.rdQLenPdf::30                      0                       # What read queue length does an incoming req see
system.mem_ctrls.rdQLenPdf::31                      0                       # What read queue length does an incoming req see
system.mem_ctrls.wrQLenPdf::0                       1                       # What write queue length does an incoming req see
system.mem_ctrls.wrQLenPdf::1                       1                       # What write queue length does an incoming req see
system.mem_ctrls.wrQLenPdf::2                       1                       # What write queue length does an incoming req see
system.mem_ctrls.wrQLenPdf::3                       1                       # What write queue length does an incoming req see
system.mem_ctrls.wrQLenPdf::4                       1                       # What write queue length does an incoming req see
system.mem_ctrls.wrQLenPdf::5                       1                       # What write queue length does an incoming req see
system.mem_ctrls.wrQLenPdf::6                       1                       # What write queue length does an incoming req see
system.mem_ctrls.wrQLenPdf::7                       1                       # What write queue length does an incoming req see
system.mem_ctrls.wrQLenPdf::8                       1                       # What write queue length does an incoming req see
system.mem_ctrls.wrQLenPdf::9                       1                       # What write queue length does an incoming req see
system.mem_ctrls.wrQLenPdf::10                      1                       # What write queue length does an incoming req see
system.mem_ctrls.wrQLenPdf::11                      1                       # What write queue length does an incoming req see
system.mem_ctrls.wrQLenPdf::12                      1                       # What write queue length does an incoming req see
system.mem_ctrls.wrQLenPdf::13                      1                       # What write queue length does an incoming req see
system.mem_ctrls.wrQLenPdf::14                      1                       # What write queue length does an incoming req see
system.mem_ctrls.wrQLenPdf::15                     58                       # What write queue length does an incoming req see
system.mem_ctrls.wrQLenPdf::16                     60                       # What write queue length does an incoming req see
system.mem_ctrls.wrQLenPdf::17                    295                       # What write queue length does an incoming req see
system.mem_ctrls.wrQLenPdf::18                    444                       # What write queue length does an incoming req see
system.mem_ctrls.wrQLenPdf::19                    537                       # What write queue length does an incoming req see
system.mem_ctrls.wrQLenPdf::20                    591                       # What write queue length does an incoming req see
system.mem_ctrls.wrQLenPdf::21                    592                       # What write queue length does an incoming req see
system.mem_ctrls.wrQLenPdf::22                    611                       # What write queue length does an incoming req see
system.mem_ctrls.wrQLenPdf::23                    615                       # What write queue length does an incoming req see
system.mem_ctrls.wrQLenPdf::24                    612                       # What write queue length does an incoming req see
system.mem_ctrls.wrQLenPdf::25                    617                       # What write queue length does an incoming req see
system.mem_ctrls.wrQLenPdf::26                    682                       # What write queue length does an incoming req see
system.mem_ctrls.wrQLenPdf::27                    635                       # What write queue length does an incoming req see
system.mem_ctrls.wrQLenPdf::28                    634                       # What write queue length does an incoming req see
system.mem_ctrls.wrQLenPdf::29                    674                       # What write queue length does an incoming req see
system.mem_ctrls.wrQLenPdf::30                    613                       # What write queue length does an incoming req see
system.mem_ctrls.wrQLenPdf::31                    597                       # What write queue length does an incoming req see
system.mem_ctrls.wrQLenPdf::32                    584                       # What write queue length does an incoming req see
system.mem_ctrls.wrQLenPdf::33                      1                       # What write queue length does an incoming req see
system.mem_ctrls.wrQLenPdf::34                      1                       # What write queue length does an incoming req see
system.mem_ctrls.wrQLenPdf::35                      1                       # What write queue length does an incoming req see
system.mem_ctrls.wrQLenPdf::36                      1                       # What write queue length does an incoming req see
system.mem_ctrls.wrQLenPdf::37                      0                       # What write queue length does an incoming req see
system.mem_ctrls.wrQLenPdf::38                      0                       # What write queue length does an incoming req see
system.mem_ctrls.wrQLenPdf::39                      0                       # What write queue length does an incoming req see
system.mem_ctrls.wrQLenPdf::40                      0                       # What write queue length does an incoming req see
system.mem_ctrls.wrQLenPdf::41                      0                       # What write queue length does an incoming req see
system.mem_ctrls.wrQLenPdf::42                      0                       # What write queue length does an incoming req see
system.mem_ctrls.wrQLenPdf::43                      0                       # What write queue length does an incoming req see
system.mem_ctrls.wrQLenPdf::44                      0                       # What write queue length does an incoming req see
system.mem_ctrls.wrQLenPdf::45                      0                       # What write queue length does an incoming req see
system.mem_ctrls.wrQLenPdf::46                      0                       # What write queue length does an incoming req see
system.mem_ctrls.wrQLenPdf::47                      0                       # What write queue length does an incoming req see
system.mem_ctrls.wrQLenPdf::48                      0                       # What write queue length does an incoming req see
system.mem_ctrls.wrQLenPdf::49                      0                       # What write queue length does an incoming req see
system.mem_ctrls.wrQLenPdf::50                      0                       # What write queue length does an incoming req see
system.mem_ctrls.wrQLenPdf::51                      0                       # What write queue length does an incoming req see
system.mem_ctrls.wrQLenPdf::52                      0                       # What write queue length does an incoming req see
system.mem_ctrls.wrQLenPdf::53                      0                       # What write queue length does an incoming req see
system.mem_ctrls.wrQLenPdf::54                      0                       # What write queue length does an incoming req see
system.mem_ctrls.wrQLenPdf::55                      0                       # What write queue length does an incoming req see
system.mem_ctrls.wrQLenPdf::56                      0                       # What write queue length does an incoming req see
system.mem_ctrls.wrQLenPdf::57                      0                       # What write queue length does an incoming req see
system.mem_ctrls.wrQLenPdf::58                      0                       # What write queue length does an incoming req see
system.mem_ctrls.wrQLenPdf::59                      0                       # What write queue length does an incoming req see
system.mem_ctrls.wrQLenPdf::60                      0                       # What write queue length does an incoming req see
system.mem_ctrls.wrQLenPdf::61                      0                       # What write queue length does an incoming req see
system.mem_ctrls.wrQLenPdf::62                      0                       # What write queue length does an incoming req see
system.mem_ctrls.wrQLenPdf::63                      0                       # What write queue length does an incoming req see
system.mem_ctrls.bytesPerActivate::samples         7996                       # Bytes accessed per row activation
system.mem_ctrls.bytesPerActivate::mean    257.048524                       # Bytes accessed per row activation
system.mem_ctrls.bytesPerActivate::gmean   149.063950                       # Bytes accessed per row activation
system.mem_ctrls.bytesPerActivate::stdev   306.731061                       # Bytes accessed per row activation
system.mem_ctrls.bytesPerActivate::0-127         3686     46.10%     46.10% # Bytes accessed per row activation
system.mem_ctrls.bytesPerActivate::128-255         1937     24.22%     70.32% # Bytes accessed per row activation
system.mem_ctrls.bytesPerActivate::256-383          682      8.53%     78.85% # Bytes accessed per row activation
system.mem_ctrls.bytesPerActivate::384-511          330      4.13%     82.98% # Bytes accessed per row activation
system.mem_ctrls.bytesPerActivate::512-639          201      2.51%     85.49% # Bytes accessed per row activation
system.mem_ctrls.bytesPerActivate::640-767          152      1.90%     87.39% # Bytes accessed per row activation
system.mem_ctrls.bytesPerActivate::768-895          137      1.71%     89.11% # Bytes accessed per row activation
system.mem_ctrls.bytesPerActivate::896-1023           96      1.20%     90.31% # Bytes accessed per row activation
system.mem_ctrls.bytesPerActivate::1024-1151          775      9.69%    100.00% # Bytes accessed per row activation
system.mem_ctrls.bytesPerActivate::total         7996                       # Bytes accessed per row activation
system.mem_ctrls.rdPerTurnAround::samples          582                       # Reads before turning the bus around for writes
system.mem_ctrls.rdPerTurnAround::mean      38.957045                       # Reads before turning the bus around for writes
system.mem_ctrls.rdPerTurnAround::gmean     32.034193                       # Reads before turning the bus around for writes
system.mem_ctrls.rdPerTurnAround::stdev     27.460876                       # Reads before turning the bus around for writes
system.mem_ctrls.rdPerTurnAround::0-7               1      0.17%      0.17% # Reads before turning the bus around for writes
system.mem_ctrls.rdPerTurnAround::8-15             38      6.53%      6.70% # Reads before turning the bus around for writes
system.mem_ctrls.rdPerTurnAround::16-23           175     30.07%     36.77% # Reads before turning the bus around for writes
system.mem_ctrls.rdPerTurnAround::24-31            74     12.71%     49.48% # Reads before turning the bus around for writes
system.mem_ctrls.rdPerTurnAround::32-39            71     12.20%     61.68% # Reads before turning the bus around for writes
system.mem_ctrls.rdPerTurnAround::40-47            61     10.48%     72.16% # Reads before turning the bus around for writes
system.mem_ctrls.rdPerTurnAround::48-55            47      8.08%     80.24% # Reads before turning the bus around for writes
system.mem_ctrls.rdPerTurnAround::56-63            32      5.50%     85.74% # Reads before turning the bus around for writes
system.mem_ctrls.rdPerTurnAround::64-71            18      3.09%     88.83% # Reads before turning the bus around for writes
system.mem_ctrls.rdPerTurnAround::72-79            22      3.78%     92.61% # Reads before turning the bus around for writes
system.mem_ctrls.rdPerTurnAround::80-87            10      1.72%     94.33% # Reads before turning the bus around for writes
system.mem_ctrls.rdPerTurnAround::88-95             8      1.37%     95.70% # Reads before turning the bus around for writes
system.mem_ctrls.rdPerTurnAround::96-103            5      0.86%     96.56% # Reads before turning the bus around for writes
system.mem_ctrls.rdPerTurnAround::104-111            6      1.03%     97.59% # Reads before turning the bus around for writes
system.mem_ctrls.rdPerTurnAround::112-119            4      0.69%     98.28% # Reads before turning the bus around for writes
system.mem_ctrls.rdPerTurnAround::120-127            1      0.17%     98.45% # Reads before turning the bus around for writes
system.mem_ctrls.rdPerTurnAround::128-135            2      0.34%     98.80% # Reads before turning the bus around for writes
system.mem_ctrls.rdPerTurnAround::136-143            3      0.52%     99.31% # Reads before turning the bus around for writes
system.mem_ctrls.rdPerTurnAround::144-151            1      0.17%     99.48% # Reads before turning the bus around for writes
system.mem_ctrls.rdPerTurnAround::160-167            1      0.17%     99.66% # Reads before turning the bus around for writes
system.mem_ctrls.rdPerTurnAround::176-183            1      0.17%     99.83% # Reads before turning the bus around for writes
system.mem_ctrls.rdPerTurnAround::248-255            1      0.17%    100.00% # Reads before turning the bus around for writes
system.mem_ctrls.rdPerTurnAround::total           582                       # Reads before turning the bus around for writes
system.mem_ctrls.wrPerTurnAround::samples          582                       # Writes before turning the bus around for reads
system.mem_ctrls.wrPerTurnAround::mean      16.230241                       # Writes before turning the bus around for reads
system.mem_ctrls.wrPerTurnAround::gmean     16.216928                       # Writes before turning the bus around for reads
system.mem_ctrls.wrPerTurnAround::stdev      0.683148                       # Writes before turning the bus around for reads
system.mem_ctrls.wrPerTurnAround::16              519     89.18%     89.18% # Writes before turning the bus around for reads
system.mem_ctrls.wrPerTurnAround::17                4      0.69%     89.86% # Writes before turning the bus around for reads
system.mem_ctrls.wrPerTurnAround::18               48      8.25%     98.11% # Writes before turning the bus around for reads
system.mem_ctrls.wrPerTurnAround::19               10      1.72%     99.83% # Writes before turning the bus around for reads
system.mem_ctrls.wrPerTurnAround::20                1      0.17%    100.00% # Writes before turning the bus around for reads
system.mem_ctrls.wrPerTurnAround::total           582                       # Writes before turning the bus around for reads
system.mem_ctrls.totQLat                    412829250                       # Total ticks spent queuing
system.mem_ctrls.totMemAccLat               838248000                       # Total ticks spent from burst creation until serviced by the DRAM
system.mem_ctrls.totBusLat                  113445000                       # Total ticks spent in databus transfers
system.mem_ctrls.avgQLat                     18195.13                       # Average queueing delay per DRAM burst
system.mem_ctrls.avgBusLat                    5000.00                       # Average bus latency per DRAM burst
system.mem_ctrls.avgMemAccLat                36945.13                       # Average memory access latency per DRAM burst
system.mem_ctrls.avgRdBW                      1194.31                       # Average DRAM read bandwidth in MiByte/s
system.mem_ctrls.avgWrBW                       497.22                       # Average achieved write bandwidth in MiByte/s
system.mem_ctrls.avgRdBWSys                   1197.00                       # Average system read bandwidth in MiByte/s
system.mem_ctrls.avgWrBWSys                    498.59                       # Average system write bandwidth in MiByte/s
system.mem_ctrls.peakBW                      12800.00                       # Theoretical peak bandwidth in MiByte/s
system.mem_ctrls.busUtil                        13.22                       # Data bus utilization in percentage
system.mem_ctrls.busUtilRead                     9.33                       # Data bus utilization in percentage for reads
system.mem_ctrls.busUtilWrite                    3.88                       # Data bus utilization in percentage for writes
system.mem_ctrls.avgRdQLen                       1.77                       # Average read queue length when enqueuing
system.mem_ctrls.avgWrQLen                      25.59                       # Average write queue length when enqueuing
system.mem_ctrls.readRowHits                    17140                       # Number of row buffer hits during reads
system.mem_ctrls.writeRowHits                    6994                       # Number of row buffer hits during writes
system.mem_ctrls.readRowHitRate                 75.54                       # Row buffer hit rate for reads
system.mem_ctrls.writeRowHitRate                73.85                       # Row buffer hit rate for writes
system.mem_ctrls.avgGap                      37744.04                       # Average gap between requests
system.mem_ctrls.pageHitRate                    75.05                       # Row buffer hit rate, read and write combined
system.mem_ctrls_0.actEnergy                 29937600                       # Energy for activate commands per rank (pJ)
system.mem_ctrls_0.preEnergy                 16335000                       # Energy for precharge commands per rank (pJ)
system.mem_ctrls_0.readEnergy                86322600                       # Energy for read commands per rank (pJ)
system.mem_ctrls_0.writeEnergy               37525680                       # Energy for write commands per rank (pJ)
system.mem_ctrls_0.refreshEnergy             79335360                       # Energy for refresh commands per rank (pJ)
system.mem_ctrls_0.actBackEnergy            800344980                       # Energy for active background per rank (pJ)
system.mem_ctrls_0.preBackEnergy             26892000                       # Energy for precharge background per rank (pJ)
system.mem_ctrls_0.totalEnergy             1076693220                       # Total energy per rank (pJ)
system.mem_ctrls_0.averagePower            886.229259                       # Core power per rank (mW)
system.mem_ctrls_0.memoryStateTime::IDLE     39595000                       # Time in different power states
system.mem_ctrls_0.memoryStateTime::REF      40560000                       # Time in different power states
system.mem_ctrls_0.memoryStateTime::PRE_PDN            0                       # Time in different power states
system.mem_ctrls_0.memoryStateTime::ACT    1134773750                       # Time in different power states
system.mem_ctrls_0.memoryStateTime::ACT_PDN            0                       # Time in different power states
system.mem_ctrls_1.actEnergy                 30497040                       # Energy for activate commands per rank (pJ)
system.mem_ctrls_1.preEnergy                 16640250                       # Energy for precharge commands per rank (pJ)
system.mem_ctrls_1.readEnergy                90519000                       # Energy for read commands per rank (pJ)
system.mem_ctrls_1.writeEnergy               23567760                       # Energy for write commands per rank (pJ)
system.mem_ctrls_1.refreshEnergy             79335360                       # Energy for refresh commands per rank (pJ)
system.mem_ctrls_1.actBackEnergy            807556905                       # Energy for active background per rank (pJ)
system.mem_ctrls_1.preBackEnergy             20565750                       # Energy for precharge background per rank (pJ)
system.mem_ctrls_1.totalEnergy             1068682065                       # Total energy per rank (pJ)
system.mem_ctrls_1.averagePower            879.635254                       # Core power per rank (mW)
system.mem_ctrls_1.memoryStateTime::IDLE     29588000                       # Time in different power states
system.mem_ctrls_1.memoryStateTime::REF      40560000                       # Time in different power states
system.mem_ctrls_1.memoryStateTime::PRE_PDN            0                       # Time in different power states
system.mem_ctrls_1.memoryStateTime::ACT    1144780750                       # Time in different power states
system.mem_ctrls_1.memoryStateTime::ACT_PDN            0                       # Time in different power states
system.cpu_voltage_domain.voltage                   1                       # Voltage in Volts
system.cpu_clk_domain.clock                       500                       # Clock period in ticks
system.cpu.dtb.fetch_hits                           0                       # ITB hits
system.cpu.dtb.fetch_misses                         0                       # ITB misses
system.cpu.dtb.fetch_acv                            0                       # ITB acv
system.cpu.dtb.fetch_accesses                       0                       # ITB accesses
system.cpu.dtb.read_hits                            0                       # DTB read hits
system.cpu.dtb.read_misses                          0                       # DTB read misses
system.cpu.dtb.read_acv                             0                       # DTB read access violations
system.cpu.dtb.read_accesses                        0                       # DTB read accesses
system.cpu.dtb.write_hits                           0                       # DTB write hits
system.cpu.dtb.write_misses                         0                       # DTB write misses
system.cpu.dtb.write_acv                            0                       # DTB write access violations
system.cpu.dtb.write_accesses                       0                       # DTB write accesses
system.cpu.dtb.data_hits                            0                       # DTB hits
system.cpu.dtb.data_misses                          0                       # DTB misses
system.cpu.dtb.data_acv                             0                       # DTB access violations
system.cpu.dtb.data_accesses                        0                       # DTB accesses
system.cpu.itb.fetch_hits                           0                       # ITB hits
system.cpu.itb.fetch_misses                         0                       # ITB misses
system.cpu.itb.fetch_acv                            0                       # ITB acv
system.cpu.itb.fetch_accesses                       0                       # ITB accesses
system.cpu.itb.read_hits                            0                       # DTB read hits
system.cpu.itb.read_misses                          0                       # DTB read misses
system.cpu.itb.read_acv                             0                       # DTB read access violations
system.cpu.itb.read_accesses                        0                       # DTB read accesses
system.cpu.itb.write_hits                           0                       # DTB write hits
system.cpu.itb.write_misses                         0                       # DTB write misses
system.cpu.itb.write_acv                            0                       # DTB write access violations
system.cpu.itb.write_accesses                       0                       # DTB write accesses
system.cpu.itb.data_hits                            0                       # DTB hits
system.cpu.itb.data_misses                          0                       # DTB misses
system.cpu.itb.data_acv                             0                       # DTB access violations
system.cpu.itb.data_accesses                        0                       # DTB accesses
system.cpu.numCycles                                0                       # number of cpu cycles simulated
system.cpu.numWorkItemsStarted                      0                       # number of work items this cpu started
system.cpu.numWorkItemsCompleted                    0                       # number of work items this cpu completed
system.cpu.committedInsts                           0                       # Number of instructions committed
system.cpu.committedOps                             0                       # Number of ops (including micro ops) committed
system.cpu.num_int_alu_accesses                     0                       # Number of integer alu accesses
system.cpu.num_fp_alu_accesses                      0                       # Number of float alu accesses
system.cpu.num_func_calls                           0                       # number of times a function call or return occured
system.cpu.num_conditional_control_insts            0                       # number of instructions that are conditional controls
system.cpu.num_int_insts                            0                       # number of integer instructions
system.cpu.num_fp_insts                             0                       # number of float instructions
system.cpu.num_int_register_reads                   0                       # number of times the integer registers were read
system.cpu.num_int_register_writes                  0                       # number of times the integer registers were written
system.cpu.num_fp_register_reads                    0                       # number of times the floating registers were read
system.cpu.num_fp_register_writes                   0                       # number of times the floating registers were written
system.cpu.num_mem_refs                             0                       # number of memory refs
system.cpu.num_load_insts                           0                       # Number of load instructions
system.cpu.num_store_insts                          0                       # Number of store instructions
system.cpu.num_idle_cycles                          0                       # Number of idle cycles
system.cpu.num_busy_cycles                          0                       # Number of busy cycles
system.cpu.not_idle_fraction                        1                       # Percentage of non-idle cycles
system.cpu.idle_fraction                            0                       # Percentage of idle cycles
system.cpu.op_class::No_OpClass                     0                       # Class of executed instruction
system.cpu.op_class::IntAlu                         0                       # Class of executed instruction
system.cpu.op_class::IntMult                        0                       # Class of executed instruction
system.cpu.op_class::IntDiv                         0                       # Class of executed instruction
system.cpu.op_class::FloatAdd                       0                       # Class of executed instruction
system.cpu.op_class::FloatCmp                       0                       # Class of executed instruction
system.cpu.op_class::FloatCvt                       0                       # Class of executed instruction
system.cpu.op_class::FloatMult                      0                       # Class of executed instruction
system.cpu.op_class::FloatDiv                       0                       # Class of executed instruction
system.cpu.op_class::FloatSqrt                      0                       # Class of executed instruction
system.cpu.op_class::SimdAdd                        0                       # Class of executed instruction
system.cpu.op_class::SimdAddAcc                     0                       # Class of executed instruction
system.cpu.op_class::SimdAlu                        0                       # Class of executed instruction
system.cpu.op_class::SimdCmp                        0                       # Class of executed instruction
system.cpu.op_class::SimdCvt                        0                       # Class of executed instruction
system.cpu.op_class::SimdMisc                       0                       # Class of executed instruction
system.cpu.op_class::SimdMult                       0                       # Class of executed instruction
system.cpu.op_class::SimdMultAcc                    0                       # Class of executed instruction
system.cpu.op_class::SimdShift                      0                       # Class of executed instruction
system.cpu.op_class::SimdShiftAcc                   0                       # Class of executed instruction
system.cpu.op_class::SimdSqrt                       0                       # Class of executed instruction
system.cpu.op_class::SimdFloatAdd                   0                       # Class of executed instruction
system.cpu.op_class::SimdFloatAlu                   0                       # Class of executed instruction
system.cpu.op_class::SimdFloatCmp                   0                       # Class of executed instruction
system.cpu.op_class::SimdFloatCvt                   0                       # Class of executed instruction
system.cpu.op_class::SimdFloatDiv                   0                       # Class of executed instruction
system.cpu.op_class::SimdFloatMisc                  0                       # Class of executed instruction
system.cpu.op_class::SimdFloatMult                  0                       # Class of executed instruction
system.cpu.op_class::SimdFloatMultAcc               0                       # Class of executed instruction
system.cpu.op_class::SimdFloatSqrt                  0                       # Class of executed instruction
system.cpu.op_class::MemRead                        0                       # Class of executed instruction
system.cpu.op_class::MemWrite                       0                       # Class of executed instruction
system.cpu.op_class::IprAccess                      0                       # Class of executed instruction
system.cpu.op_class::InstPrefetch                   0                       # Class of executed instruction
system.cpu.op_class::total                          0                       # Class of executed instruction
system.cpu.kern.inst.arm                            0                       # number of arm instructions executed
system.cpu.kern.inst.quiesce                        0                       # number of quiesce instructions executed
system.cpu.kern.inst.hwrei                       2781                       # number of hwrei instructions executed
system.cpu.kern.ipl_count::0                      635     49.15%     49.15% # number of times we switched to this ipl
system.cpu.kern.ipl_count::22                       1      0.08%     49.23% # number of times we switched to this ipl
system.cpu.kern.ipl_count::31                     656     50.77%    100.00% # number of times we switched to this ipl
system.cpu.kern.ipl_count::total                 1292                       # number of times we switched to this ipl
system.cpu.kern.ipl_good::0                       633     49.96%     49.96% # number of times we switched to this ipl from a different ipl
system.cpu.kern.ipl_good::22                        1      0.08%     50.04% # number of times we switched to this ipl from a different ipl
system.cpu.kern.ipl_good::31                      633     49.96%    100.00% # number of times we switched to this ipl from a different ipl
system.cpu.kern.ipl_good::total                  1267                       # number of times we switched to this ipl from a different ipl
system.cpu.kern.ipl_ticks::0               1104555000     90.99%     90.99% # number of cycles we spent at this ipl
system.cpu.kern.ipl_ticks::22                 1416000      0.12%     91.10% # number of cycles we spent at this ipl
system.cpu.kern.ipl_ticks::31               107999000      8.90%    100.00% # number of cycles we spent at this ipl
system.cpu.kern.ipl_ticks::total           1213970000                       # number of cycles we spent at this ipl
system.cpu.kern.ipl_used::0                  0.996850                       # fraction of swpipl calls that actually changed the ipl
system.cpu.kern.ipl_used::22                        1                       # fraction of swpipl calls that actually changed the ipl
system.cpu.kern.ipl_used::31                 0.964939                       # fraction of swpipl calls that actually changed the ipl
system.cpu.kern.ipl_used::total              0.980650                       # fraction of swpipl calls that actually changed the ipl
system.cpu.kern.syscall::2                          1      5.56%      5.56% # number of syscalls executed
system.cpu.kern.syscall::3                          2     11.11%     16.67% # number of syscalls executed
system.cpu.kern.syscall::6                          2     11.11%     27.78% # number of syscalls executed
system.cpu.kern.syscall::17                         1      5.56%     33.33% # number of syscalls executed
system.cpu.kern.syscall::19                         1      5.56%     38.89% # number of syscalls executed
system.cpu.kern.syscall::33                         1      5.56%     44.44% # number of syscalls executed
system.cpu.kern.syscall::45                         3     16.67%     61.11% # number of syscalls executed
system.cpu.kern.syscall::48                         1      5.56%     66.67% # number of syscalls executed
system.cpu.kern.syscall::59                         1      5.56%     72.22% # number of syscalls executed
system.cpu.kern.syscall::71                         4     22.22%     94.44% # number of syscalls executed
system.cpu.kern.syscall::74                         1      5.56%    100.00% # number of syscalls executed
system.cpu.kern.syscall::total                     18                       # number of syscalls executed
system.cpu.kern.callpal::swpctx                   118      8.10%      8.10% # number of callpals executed
system.cpu.kern.callpal::tbi                        6      0.41%      8.51% # number of callpals executed
system.cpu.kern.callpal::swpipl                  1107     75.98%     84.49% # number of callpals executed
system.cpu.kern.callpal::rdps                       3      0.21%     84.69% # number of callpals executed
system.cpu.kern.callpal::wrusp                      1      0.07%     84.76% # number of callpals executed
system.cpu.kern.callpal::rdusp                      1      0.07%     84.83% # number of callpals executed
system.cpu.kern.callpal::rti                      184     12.63%     97.46% # number of callpals executed
system.cpu.kern.callpal::callsys                   33      2.26%     99.73% # number of callpals executed
system.cpu.kern.callpal::imb                        4      0.27%    100.00% # number of callpals executed
system.cpu.kern.callpal::total                   1457                       # number of callpals executed
system.cpu.kern.mode_switch::kernel               302                       # number of protection mode switches
system.cpu.kern.mode_switch::user                 181                       # number of protection mode switches
system.cpu.kern.mode_switch::idle                   0                       # number of protection mode switches
system.cpu.kern.mode_good::kernel                 181                      
system.cpu.kern.mode_good::user                   181                      
system.cpu.kern.mode_good::idle                     0                      
system.cpu.kern.mode_switch_good::kernel     0.599338                       # fraction of useful protection mode switches
system.cpu.kern.mode_switch_good::user              1                       # fraction of useful protection mode switches
system.cpu.kern.mode_switch_good::idle            nan                       # fraction of useful protection mode switches
system.cpu.kern.mode_switch_good::total      0.749482                       # fraction of useful protection mode switches
system.cpu.kern.mode_ticks::kernel          879437000     72.44%     72.44% # number of ticks spent at the given mode
system.cpu.kern.mode_ticks::user            334526000     27.56%    100.00% # number of ticks spent at the given mode
system.cpu.kern.mode_ticks::idle                    0      0.00%    100.00% # number of ticks spent at the given mode
system.cpu.kern.swap_context                      118                       # number of times the context was actually changed
system.cpu.dcache.tags.replacements             18282                       # number of replacements
system.cpu.dcache.tags.tagsinuse                  512                       # Cycle average of tags in use
system.cpu.dcache.tags.total_refs              199595                       # Total number of references to valid blocks.
system.cpu.dcache.tags.sampled_refs             18282                       # Sample count of references to valid blocks.
system.cpu.dcache.tags.avg_refs             10.917569                       # Average number of references to valid blocks.
system.cpu.dcache.tags.warmup_cycle                 0                       # Cycle when the warmup percentage was hit.
system.cpu.dcache.tags.occ_blocks::cpu.data    24.676171                       # Average occupied blocks per requestor
system.cpu.dcache.tags.occ_blocks::switch_cpus.data   487.323829                       # Average occupied blocks per requestor
system.cpu.dcache.tags.occ_percent::cpu.data     0.048196                       # Average percentage of cache occupancy
system.cpu.dcache.tags.occ_percent::switch_cpus.data     0.951804                       # Average percentage of cache occupancy
system.cpu.dcache.tags.occ_percent::total            1                       # Average percentage of cache occupancy
system.cpu.dcache.tags.occ_task_id_blocks::1024          512                       # Occupied blocks per task id
system.cpu.dcache.tags.age_task_id_blocks_1024::0           91                       # Occupied blocks per task id
system.cpu.dcache.tags.age_task_id_blocks_1024::1          363                       # Occupied blocks per task id
system.cpu.dcache.tags.age_task_id_blocks_1024::2           58                       # Occupied blocks per task id
system.cpu.dcache.tags.occ_task_id_percent::1024            1                       # Percentage of cache occupancy per task id
system.cpu.dcache.tags.tag_accesses           1188410                       # Number of tag accesses
system.cpu.dcache.tags.data_accesses          1188410                       # Number of data accesses
system.cpu.dcache.ReadReq_hits::switch_cpus.data       133454                       # number of ReadReq hits
system.cpu.dcache.ReadReq_hits::total          133454                       # number of ReadReq hits
system.cpu.dcache.WriteReq_hits::switch_cpus.data        58724                       # number of WriteReq hits
system.cpu.dcache.WriteReq_hits::total          58724                       # number of WriteReq hits
system.cpu.dcache.LoadLockedReq_hits::switch_cpus.data         2229                       # number of LoadLockedReq hits
system.cpu.dcache.LoadLockedReq_hits::total         2229                       # number of LoadLockedReq hits
system.cpu.dcache.StoreCondReq_hits::switch_cpus.data         2375                       # number of StoreCondReq hits
system.cpu.dcache.StoreCondReq_hits::total         2375                       # number of StoreCondReq hits
system.cpu.dcache.demand_hits::switch_cpus.data       192178                       # number of demand (read+write) hits
system.cpu.dcache.demand_hits::total           192178                       # number of demand (read+write) hits
system.cpu.dcache.overall_hits::switch_cpus.data       192178                       # number of overall hits
system.cpu.dcache.overall_hits::total          192178                       # number of overall hits
system.cpu.dcache.ReadReq_misses::switch_cpus.data        27820                       # number of ReadReq misses
system.cpu.dcache.ReadReq_misses::total         27820                       # number of ReadReq misses
system.cpu.dcache.WriteReq_misses::switch_cpus.data        67522                       # number of WriteReq misses
system.cpu.dcache.WriteReq_misses::total        67522                       # number of WriteReq misses
system.cpu.dcache.LoadLockedReq_misses::switch_cpus.data          405                       # number of LoadLockedReq misses
system.cpu.dcache.LoadLockedReq_misses::total          405                       # number of LoadLockedReq misses
system.cpu.dcache.StoreCondReq_misses::switch_cpus.data            3                       # number of StoreCondReq misses
system.cpu.dcache.StoreCondReq_misses::total            3                       # number of StoreCondReq misses
system.cpu.dcache.demand_misses::switch_cpus.data        95342                       # number of demand (read+write) misses
system.cpu.dcache.demand_misses::total          95342                       # number of demand (read+write) misses
system.cpu.dcache.overall_misses::switch_cpus.data        95342                       # number of overall misses
system.cpu.dcache.overall_misses::total         95342                       # number of overall misses
system.cpu.dcache.ReadReq_miss_latency::switch_cpus.data   1714635501                       # number of ReadReq miss cycles
system.cpu.dcache.ReadReq_miss_latency::total   1714635501                       # number of ReadReq miss cycles
system.cpu.dcache.WriteReq_miss_latency::switch_cpus.data   5006202144                       # number of WriteReq miss cycles
system.cpu.dcache.WriteReq_miss_latency::total   5006202144                       # number of WriteReq miss cycles
system.cpu.dcache.LoadLockedReq_miss_latency::switch_cpus.data     29431000                       # number of LoadLockedReq miss cycles
system.cpu.dcache.LoadLockedReq_miss_latency::total     29431000                       # number of LoadLockedReq miss cycles
system.cpu.dcache.StoreCondReq_miss_latency::switch_cpus.data        60001                       # number of StoreCondReq miss cycles
system.cpu.dcache.StoreCondReq_miss_latency::total        60001                       # number of StoreCondReq miss cycles
system.cpu.dcache.demand_miss_latency::switch_cpus.data   6720837645                       # number of demand (read+write) miss cycles
system.cpu.dcache.demand_miss_latency::total   6720837645                       # number of demand (read+write) miss cycles
system.cpu.dcache.overall_miss_latency::switch_cpus.data   6720837645                       # number of overall miss cycles
system.cpu.dcache.overall_miss_latency::total   6720837645                       # number of overall miss cycles
system.cpu.dcache.ReadReq_accesses::switch_cpus.data       161274                       # number of ReadReq accesses(hits+misses)
system.cpu.dcache.ReadReq_accesses::total       161274                       # number of ReadReq accesses(hits+misses)
system.cpu.dcache.WriteReq_accesses::switch_cpus.data       126246                       # number of WriteReq accesses(hits+misses)
system.cpu.dcache.WriteReq_accesses::total       126246                       # number of WriteReq accesses(hits+misses)
system.cpu.dcache.LoadLockedReq_accesses::switch_cpus.data         2634                       # number of LoadLockedReq accesses(hits+misses)
system.cpu.dcache.LoadLockedReq_accesses::total         2634                       # number of LoadLockedReq accesses(hits+misses)
system.cpu.dcache.StoreCondReq_accesses::switch_cpus.data         2378                       # number of StoreCondReq accesses(hits+misses)
system.cpu.dcache.StoreCondReq_accesses::total         2378                       # number of StoreCondReq accesses(hits+misses)
system.cpu.dcache.demand_accesses::switch_cpus.data       287520                       # number of demand (read+write) accesses
system.cpu.dcache.demand_accesses::total       287520                       # number of demand (read+write) accesses
system.cpu.dcache.overall_accesses::switch_cpus.data       287520                       # number of overall (read+write) accesses
system.cpu.dcache.overall_accesses::total       287520                       # number of overall (read+write) accesses
system.cpu.dcache.ReadReq_miss_rate::switch_cpus.data     0.172501                       # miss rate for ReadReq accesses
system.cpu.dcache.ReadReq_miss_rate::total     0.172501                       # miss rate for ReadReq accesses
system.cpu.dcache.WriteReq_miss_rate::switch_cpus.data     0.534845                       # miss rate for WriteReq accesses
system.cpu.dcache.WriteReq_miss_rate::total     0.534845                       # miss rate for WriteReq accesses
system.cpu.dcache.LoadLockedReq_miss_rate::switch_cpus.data     0.153759                       # miss rate for LoadLockedReq accesses
system.cpu.dcache.LoadLockedReq_miss_rate::total     0.153759                       # miss rate for LoadLockedReq accesses
system.cpu.dcache.StoreCondReq_miss_rate::switch_cpus.data     0.001262                       # miss rate for StoreCondReq accesses
system.cpu.dcache.StoreCondReq_miss_rate::total     0.001262                       # miss rate for StoreCondReq accesses
system.cpu.dcache.demand_miss_rate::switch_cpus.data     0.331601                       # miss rate for demand accesses
system.cpu.dcache.demand_miss_rate::total     0.331601                       # miss rate for demand accesses
system.cpu.dcache.overall_miss_rate::switch_cpus.data     0.331601                       # miss rate for overall accesses
system.cpu.dcache.overall_miss_rate::total     0.331601                       # miss rate for overall accesses
system.cpu.dcache.ReadReq_avg_miss_latency::switch_cpus.data 61633.195579                       # average ReadReq miss latency
system.cpu.dcache.ReadReq_avg_miss_latency::total 61633.195579                       # average ReadReq miss latency
system.cpu.dcache.WriteReq_avg_miss_latency::switch_cpus.data 74141.792956                       # average WriteReq miss latency
system.cpu.dcache.WriteReq_avg_miss_latency::total 74141.792956                       # average WriteReq miss latency
system.cpu.dcache.LoadLockedReq_avg_miss_latency::switch_cpus.data 72669.135802                       # average LoadLockedReq miss latency
system.cpu.dcache.LoadLockedReq_avg_miss_latency::total 72669.135802                       # average LoadLockedReq miss latency
system.cpu.dcache.StoreCondReq_avg_miss_latency::switch_cpus.data 20000.333333                       # average StoreCondReq miss latency
system.cpu.dcache.StoreCondReq_avg_miss_latency::total 20000.333333                       # average StoreCondReq miss latency
system.cpu.dcache.demand_avg_miss_latency::switch_cpus.data 70491.888622                       # average overall miss latency
system.cpu.dcache.demand_avg_miss_latency::total 70491.888622                       # average overall miss latency
system.cpu.dcache.overall_avg_miss_latency::switch_cpus.data 70491.888622                       # average overall miss latency
system.cpu.dcache.overall_avg_miss_latency::total 70491.888622                       # average overall miss latency
system.cpu.dcache.blocked_cycles::no_mshrs       395615                       # number of cycles access was blocked
system.cpu.dcache.blocked_cycles::no_targets            0                       # number of cycles access was blocked
system.cpu.dcache.blocked::no_mshrs              7547                       # number of cycles access was blocked
system.cpu.dcache.blocked::no_targets               0                       # number of cycles access was blocked
system.cpu.dcache.avg_blocked_cycles::no_mshrs    52.420167                       # average number of cycles each access was blocked
system.cpu.dcache.avg_blocked_cycles::no_targets          nan                       # average number of cycles each access was blocked
system.cpu.dcache.fast_writes                       0                       # number of fast writes performed
system.cpu.dcache.cache_copies                      0                       # number of cache copies performed
system.cpu.dcache.writebacks::writebacks        11005                       # number of writebacks
system.cpu.dcache.writebacks::total             11005                       # number of writebacks
system.cpu.dcache.ReadReq_mshr_hits::switch_cpus.data        18848                       # number of ReadReq MSHR hits
system.cpu.dcache.ReadReq_mshr_hits::total        18848                       # number of ReadReq MSHR hits
system.cpu.dcache.WriteReq_mshr_hits::switch_cpus.data        58422                       # number of WriteReq MSHR hits
system.cpu.dcache.WriteReq_mshr_hits::total        58422                       # number of WriteReq MSHR hits
system.cpu.dcache.LoadLockedReq_mshr_hits::switch_cpus.data          182                       # number of LoadLockedReq MSHR hits
system.cpu.dcache.LoadLockedReq_mshr_hits::total          182                       # number of LoadLockedReq MSHR hits
system.cpu.dcache.demand_mshr_hits::switch_cpus.data        77270                       # number of demand (read+write) MSHR hits
system.cpu.dcache.demand_mshr_hits::total        77270                       # number of demand (read+write) MSHR hits
system.cpu.dcache.overall_mshr_hits::switch_cpus.data        77270                       # number of overall MSHR hits
system.cpu.dcache.overall_mshr_hits::total        77270                       # number of overall MSHR hits
system.cpu.dcache.ReadReq_mshr_misses::switch_cpus.data         8972                       # number of ReadReq MSHR misses
system.cpu.dcache.ReadReq_mshr_misses::total         8972                       # number of ReadReq MSHR misses
system.cpu.dcache.WriteReq_mshr_misses::switch_cpus.data         9100                       # number of WriteReq MSHR misses
system.cpu.dcache.WriteReq_mshr_misses::total         9100                       # number of WriteReq MSHR misses
system.cpu.dcache.LoadLockedReq_mshr_misses::switch_cpus.data          223                       # number of LoadLockedReq MSHR misses
system.cpu.dcache.LoadLockedReq_mshr_misses::total          223                       # number of LoadLockedReq MSHR misses
system.cpu.dcache.StoreCondReq_mshr_misses::switch_cpus.data            3                       # number of StoreCondReq MSHR misses
system.cpu.dcache.StoreCondReq_mshr_misses::total            3                       # number of StoreCondReq MSHR misses
system.cpu.dcache.demand_mshr_misses::switch_cpus.data        18072                       # number of demand (read+write) MSHR misses
system.cpu.dcache.demand_mshr_misses::total        18072                       # number of demand (read+write) MSHR misses
system.cpu.dcache.overall_mshr_misses::switch_cpus.data        18072                       # number of overall MSHR misses
system.cpu.dcache.overall_mshr_misses::total        18072                       # number of overall MSHR misses
system.cpu.dcache.WriteReq_mshr_uncacheable::switch_cpus.data            1                       # number of WriteReq MSHR uncacheable
system.cpu.dcache.WriteReq_mshr_uncacheable::total            1                       # number of WriteReq MSHR uncacheable
system.cpu.dcache.overall_mshr_uncacheable_misses::switch_cpus.data            1                       # number of overall MSHR uncacheable misses
system.cpu.dcache.overall_mshr_uncacheable_misses::total            1                       # number of overall MSHR uncacheable misses
system.cpu.dcache.ReadReq_mshr_miss_latency::switch_cpus.data    651664250                       # number of ReadReq MSHR miss cycles
system.cpu.dcache.ReadReq_mshr_miss_latency::total    651664250                       # number of ReadReq MSHR miss cycles
system.cpu.dcache.WriteReq_mshr_miss_latency::switch_cpus.data    776210025                       # number of WriteReq MSHR miss cycles
system.cpu.dcache.WriteReq_mshr_miss_latency::total    776210025                       # number of WriteReq MSHR miss cycles
system.cpu.dcache.LoadLockedReq_mshr_miss_latency::switch_cpus.data     16348500                       # number of LoadLockedReq MSHR miss cycles
system.cpu.dcache.LoadLockedReq_mshr_miss_latency::total     16348500                       # number of LoadLockedReq MSHR miss cycles
system.cpu.dcache.StoreCondReq_mshr_miss_latency::switch_cpus.data        55499                       # number of StoreCondReq MSHR miss cycles
system.cpu.dcache.StoreCondReq_mshr_miss_latency::total        55499                       # number of StoreCondReq MSHR miss cycles
system.cpu.dcache.demand_mshr_miss_latency::switch_cpus.data   1427874275                       # number of demand (read+write) MSHR miss cycles
system.cpu.dcache.demand_mshr_miss_latency::total   1427874275                       # number of demand (read+write) MSHR miss cycles
system.cpu.dcache.overall_mshr_miss_latency::switch_cpus.data   1427874275                       # number of overall MSHR miss cycles
system.cpu.dcache.overall_mshr_miss_latency::total   1427874275                       # number of overall MSHR miss cycles
system.cpu.dcache.WriteReq_mshr_uncacheable_latency::switch_cpus.data       223500                       # number of WriteReq MSHR uncacheable cycles
system.cpu.dcache.WriteReq_mshr_uncacheable_latency::total       223500                       # number of WriteReq MSHR uncacheable cycles
system.cpu.dcache.overall_mshr_uncacheable_latency::switch_cpus.data       223500                       # number of overall MSHR uncacheable cycles
system.cpu.dcache.overall_mshr_uncacheable_latency::total       223500                       # number of overall MSHR uncacheable cycles
system.cpu.dcache.ReadReq_mshr_miss_rate::switch_cpus.data     0.055632                       # mshr miss rate for ReadReq accesses
system.cpu.dcache.ReadReq_mshr_miss_rate::total     0.055632                       # mshr miss rate for ReadReq accesses
system.cpu.dcache.WriteReq_mshr_miss_rate::switch_cpus.data     0.072081                       # mshr miss rate for WriteReq accesses
system.cpu.dcache.WriteReq_mshr_miss_rate::total     0.072081                       # mshr miss rate for WriteReq accesses
system.cpu.dcache.LoadLockedReq_mshr_miss_rate::switch_cpus.data     0.084662                       # mshr miss rate for LoadLockedReq accesses
system.cpu.dcache.LoadLockedReq_mshr_miss_rate::total     0.084662                       # mshr miss rate for LoadLockedReq accesses
system.cpu.dcache.StoreCondReq_mshr_miss_rate::switch_cpus.data     0.001262                       # mshr miss rate for StoreCondReq accesses
system.cpu.dcache.StoreCondReq_mshr_miss_rate::total     0.001262                       # mshr miss rate for StoreCondReq accesses
system.cpu.dcache.demand_mshr_miss_rate::switch_cpus.data     0.062855                       # mshr miss rate for demand accesses
system.cpu.dcache.demand_mshr_miss_rate::total     0.062855                       # mshr miss rate for demand accesses
system.cpu.dcache.overall_mshr_miss_rate::switch_cpus.data     0.062855                       # mshr miss rate for overall accesses
system.cpu.dcache.overall_mshr_miss_rate::total     0.062855                       # mshr miss rate for overall accesses
system.cpu.dcache.ReadReq_avg_mshr_miss_latency::switch_cpus.data 72633.108560                       # average ReadReq mshr miss latency
system.cpu.dcache.ReadReq_avg_mshr_miss_latency::total 72633.108560                       # average ReadReq mshr miss latency
system.cpu.dcache.WriteReq_avg_mshr_miss_latency::switch_cpus.data 85297.804945                       # average WriteReq mshr miss latency
system.cpu.dcache.WriteReq_avg_mshr_miss_latency::total 85297.804945                       # average WriteReq mshr miss latency
system.cpu.dcache.LoadLockedReq_avg_mshr_miss_latency::switch_cpus.data 73311.659193                       # average LoadLockedReq mshr miss latency
system.cpu.dcache.LoadLockedReq_avg_mshr_miss_latency::total 73311.659193                       # average LoadLockedReq mshr miss latency
system.cpu.dcache.StoreCondReq_avg_mshr_miss_latency::switch_cpus.data 18499.666667                       # average StoreCondReq mshr miss latency
system.cpu.dcache.StoreCondReq_avg_mshr_miss_latency::total 18499.666667                       # average StoreCondReq mshr miss latency
system.cpu.dcache.demand_avg_mshr_miss_latency::switch_cpus.data 79010.307382                       # average overall mshr miss latency
system.cpu.dcache.demand_avg_mshr_miss_latency::total 79010.307382                       # average overall mshr miss latency
system.cpu.dcache.overall_avg_mshr_miss_latency::switch_cpus.data 79010.307382                       # average overall mshr miss latency
system.cpu.dcache.overall_avg_mshr_miss_latency::total 79010.307382                       # average overall mshr miss latency
system.cpu.dcache.WriteReq_avg_mshr_uncacheable_latency::switch_cpus.data       223500                       # average WriteReq mshr uncacheable latency
system.cpu.dcache.WriteReq_avg_mshr_uncacheable_latency::total       223500                       # average WriteReq mshr uncacheable latency
system.cpu.dcache.overall_avg_mshr_uncacheable_latency::switch_cpus.data       223500                       # average overall mshr uncacheable latency
system.cpu.dcache.overall_avg_mshr_uncacheable_latency::total       223500                       # average overall mshr uncacheable latency
system.cpu.dcache.no_allocate_misses                0                       # Number of misses that were no-allocate
system.cpu.icache.tags.replacements             10457                       # number of replacements
system.cpu.icache.tags.tagsinuse           511.719514                       # Cycle average of tags in use
system.cpu.icache.tags.total_refs              363234                       # Total number of references to valid blocks.
system.cpu.icache.tags.sampled_refs             10457                       # Sample count of references to valid blocks.
system.cpu.icache.tags.avg_refs             34.735966                       # Average number of references to valid blocks.
system.cpu.icache.tags.warmup_cycle                 0                       # Cycle when the warmup percentage was hit.
system.cpu.icache.tags.occ_blocks::cpu.inst    21.771049                       # Average occupied blocks per requestor
system.cpu.icache.tags.occ_blocks::switch_cpus.inst   489.948465                       # Average occupied blocks per requestor
system.cpu.icache.tags.occ_percent::cpu.inst     0.042522                       # Average percentage of cache occupancy
system.cpu.icache.tags.occ_percent::switch_cpus.inst     0.956931                       # Average percentage of cache occupancy
system.cpu.icache.tags.occ_percent::total     0.999452                       # Average percentage of cache occupancy
system.cpu.icache.tags.occ_task_id_blocks::1024          511                       # Occupied blocks per task id
system.cpu.icache.tags.age_task_id_blocks_1024::0           66                       # Occupied blocks per task id
system.cpu.icache.tags.age_task_id_blocks_1024::1           20                       # Occupied blocks per task id
system.cpu.icache.tags.age_task_id_blocks_1024::2          424                       # Occupied blocks per task id
system.cpu.icache.tags.age_task_id_blocks_1024::3            1                       # Occupied blocks per task id
system.cpu.icache.tags.occ_task_id_percent::1024     0.998047                       # Percentage of cache occupancy per task id
system.cpu.icache.tags.tag_accesses            340452                       # Number of tag accesses
system.cpu.icache.tags.data_accesses           340452                       # Number of data accesses
system.cpu.icache.ReadReq_hits::switch_cpus.inst       152510                       # number of ReadReq hits
system.cpu.icache.ReadReq_hits::total          152510                       # number of ReadReq hits
system.cpu.icache.demand_hits::switch_cpus.inst       152510                       # number of demand (read+write) hits
system.cpu.icache.demand_hits::total           152510                       # number of demand (read+write) hits
system.cpu.icache.overall_hits::switch_cpus.inst       152510                       # number of overall hits
system.cpu.icache.overall_hits::total          152510                       # number of overall hits
system.cpu.icache.ReadReq_misses::switch_cpus.inst        12480                       # number of ReadReq misses
system.cpu.icache.ReadReq_misses::total         12480                       # number of ReadReq misses
system.cpu.icache.demand_misses::switch_cpus.inst        12480                       # number of demand (read+write) misses
system.cpu.icache.demand_misses::total          12480                       # number of demand (read+write) misses
system.cpu.icache.overall_misses::switch_cpus.inst        12480                       # number of overall misses
system.cpu.icache.overall_misses::total         12480                       # number of overall misses
system.cpu.icache.ReadReq_miss_latency::switch_cpus.inst    766515494                       # number of ReadReq miss cycles
system.cpu.icache.ReadReq_miss_latency::total    766515494                       # number of ReadReq miss cycles
system.cpu.icache.demand_miss_latency::switch_cpus.inst    766515494                       # number of demand (read+write) miss cycles
system.cpu.icache.demand_miss_latency::total    766515494                       # number of demand (read+write) miss cycles
system.cpu.icache.overall_miss_latency::switch_cpus.inst    766515494                       # number of overall miss cycles
system.cpu.icache.overall_miss_latency::total    766515494                       # number of overall miss cycles
system.cpu.icache.ReadReq_accesses::switch_cpus.inst       164990                       # number of ReadReq accesses(hits+misses)
system.cpu.icache.ReadReq_accesses::total       164990                       # number of ReadReq accesses(hits+misses)
system.cpu.icache.demand_accesses::switch_cpus.inst       164990                       # number of demand (read+write) accesses
system.cpu.icache.demand_accesses::total       164990                       # number of demand (read+write) accesses
system.cpu.icache.overall_accesses::switch_cpus.inst       164990                       # number of overall (read+write) accesses
system.cpu.icache.overall_accesses::total       164990                       # number of overall (read+write) accesses
system.cpu.icache.ReadReq_miss_rate::switch_cpus.inst     0.075641                       # miss rate for ReadReq accesses
system.cpu.icache.ReadReq_miss_rate::total     0.075641                       # miss rate for ReadReq accesses
system.cpu.icache.demand_miss_rate::switch_cpus.inst     0.075641                       # miss rate for demand accesses
system.cpu.icache.demand_miss_rate::total     0.075641                       # miss rate for demand accesses
system.cpu.icache.overall_miss_rate::switch_cpus.inst     0.075641                       # miss rate for overall accesses
system.cpu.icache.overall_miss_rate::total     0.075641                       # miss rate for overall accesses
system.cpu.icache.ReadReq_avg_miss_latency::switch_cpus.inst 61419.510737                       # average ReadReq miss latency
system.cpu.icache.ReadReq_avg_miss_latency::total 61419.510737                       # average ReadReq miss latency
system.cpu.icache.demand_avg_miss_latency::switch_cpus.inst 61419.510737                       # average overall miss latency
system.cpu.icache.demand_avg_miss_latency::total 61419.510737                       # average overall miss latency
system.cpu.icache.overall_avg_miss_latency::switch_cpus.inst 61419.510737                       # average overall miss latency
system.cpu.icache.overall_avg_miss_latency::total 61419.510737                       # average overall miss latency
system.cpu.icache.blocked_cycles::no_mshrs         1992                       # number of cycles access was blocked
system.cpu.icache.blocked_cycles::no_targets            0                       # number of cycles access was blocked
system.cpu.icache.blocked::no_mshrs                45                       # number of cycles access was blocked
system.cpu.icache.blocked::no_targets               0                       # number of cycles access was blocked
system.cpu.icache.avg_blocked_cycles::no_mshrs    44.266667                       # average number of cycles each access was blocked
system.cpu.icache.avg_blocked_cycles::no_targets          nan                       # average number of cycles each access was blocked
system.cpu.icache.fast_writes                       0                       # number of fast writes performed
system.cpu.icache.cache_copies                      0                       # number of cache copies performed
system.cpu.icache.ReadReq_mshr_hits::switch_cpus.inst         2008                       # number of ReadReq MSHR hits
system.cpu.icache.ReadReq_mshr_hits::total         2008                       # number of ReadReq MSHR hits
system.cpu.icache.demand_mshr_hits::switch_cpus.inst         2008                       # number of demand (read+write) MSHR hits
system.cpu.icache.demand_mshr_hits::total         2008                       # number of demand (read+write) MSHR hits
[...]
system.switch_cpus.iew.wb_penalized_rate            0                       # fraction of instructions written-back that wrote to 'other' IQ
system.switch_cpus.commit.commitSquashedInsts      1938604                       # The number of squashed insts skipped by commit
system.switch_cpus.commit.commitNonSpecStalls       235019                       # The number of times commit has been forced to stall to communicate backwards
system.switch_cpus.commit.branchMispredicts        85797                       # The number of times a branch was mispredicted
system.switch_cpus.commit.committed_per_cycle::samples     73120261                       # Number of insts commited each cycle
system.switch_cpus.commit.committed_per_cycle::mean     1.543210                       # Number of insts commited each cycle
system.switch_cpus.commit.committed_per_cycle::stdev     2.584112                       # Number of insts commited each cycle
system.switch_cpus.commit.committed_per_cycle::underflows            0      0.00%      0.00% # Number of insts commited each cycle
system.switch_cpus.commit.committed_per_cycle::0     43438782     59.41%     59.41% # Number of insts commited each cycle
system.switch_cpus.commit.committed_per_cycle::1      9969782     13.63%     73.04% # Number of insts commited each cycle
system.switch_cpus.commit.committed_per_cycle::2      3504983      4.79%     77.84% # Number of insts commited each cycle
system.switch_cpus.commit.committed_per_cycle::3      3728601      5.10%     82.93% # Number of insts commited each cycle
system.switch_cpus.commit.committed_per_cycle::4      2267805      3.10%     86.04% # Number of insts commited each cycle
system.switch_cpus.commit.committed_per_cycle::5       694215      0.95%     86.99% # Number of insts commited each cycle
system.switch_cpus.commit.committed_per_cycle::6      1069512      1.46%     88.45% # Number of insts commited each cycle
system.switch_cpus.commit.committed_per_cycle::7      1857678      2.54%     90.99% # Number of insts commited each cycle
system.switch_cpus.commit.committed_per_cycle::8      6588903      9.01%    100.00% # Number of insts commited each cycle
system.switch_cpus.commit.committed_per_cycle::overflows            0      0.00%    100.00% # Number of insts commited each cycle
system.switch_cpus.commit.committed_per_cycle::min_value            0                       # Number of insts commited each cycle
system.switch_cpus.commit.committed_per_cycle::max_value            8                       # Number of insts commited each cycle
system.switch_cpus.commit.committed_per_cycle::total     73120261                       # Number of insts commited each cycle
system.switch_cpus.commit.committedInsts    112839888                       # Number of instructions committed
system.switch_cpus.commit.committedOps      112839888                       # Number of ops (including micro ops) committed
system.switch_cpus.commit.swp_count                 0                       # Number of s/w prefetches committed
system.switch_cpus.commit.refs               37836857                       # Number of memory references committed
system.switch_cpus.commit.loads              23337534                       # Number of loads committed
system.switch_cpus.commit.membars              115812                       # Number of memory barriers committed
system.switch_cpus.commit.branches           19708842                       # Number of branches committed
system.switch_cpus.commit.fp_insts               4914                       # Number of committed floating point instructions.
system.switch_cpus.commit.int_insts         100304173                       # Number of committed integer instructions.
system.switch_cpus.commit.function_calls      3870115                       # Number of function calls committed.
system.switch_cpus.commit.op_class_0::No_OpClass     11279909     10.00%     10.00% # Class of committed instruction
system.switch_cpus.commit.op_class_0::IntAlu     63457314     56.24%     66.23% # Class of committed instruction
system.switch_cpus.commit.op_class_0::IntMult        13834      0.01%     66.25% # Class of committed instruction
system.switch_cpus.commit.op_class_0::IntDiv            0      0.00%     66.25% # Class of committed instruction
system.switch_cpus.commit.op_class_0::FloatAdd         1679      0.00%     66.25% # Class of committed instruction
system.switch_cpus.commit.op_class_0::FloatCmp            1      0.00%     66.25% # Class of committed instruction
system.switch_cpus.commit.op_class_0::FloatCvt            2      0.00%     66.25% # Class of committed instruction
system.switch_cpus.commit.op_class_0::FloatMult            1      0.00%     66.25% # Class of committed instruction
system.switch_cpus.commit.op_class_0::FloatDiv          245      0.00%     66.25% # Class of committed instruction
system.switch_cpus.commit.op_class_0::FloatSqrt            0      0.00%     66.25% # Class of committed instruction
system.switch_cpus.commit.op_class_0::SimdAdd            0      0.00%     66.25% # Class of committed instruction
system.switch_cpus.commit.op_class_0::SimdAddAcc            0      0.00%     66.25% # Class of committed instruction
system.switch_cpus.commit.op_class_0::SimdAlu            0      0.00%     66.25% # Class of committed instruction
system.switch_cpus.commit.op_class_0::SimdCmp            0      0.00%     66.25% # Class of committed instruction
system.switch_cpus.commit.op_class_0::SimdCvt            0      0.00%     66.25% # Class of committed instruction
system.switch_cpus.commit.op_class_0::SimdMisc            0      0.00%     66.25% # Class of committed instruction
system.switch_cpus.commit.op_class_0::SimdMult            0      0.00%     66.25% # Class of committed instruction
system.switch_cpus.commit.op_class_0::SimdMultAcc            0      0.00%     66.25% # Class of committed instruction
system.switch_cpus.commit.op_class_0::SimdShift            0      0.00%     66.25% # Class of committed instruction
system.switch_cpus.commit.op_class_0::SimdShiftAcc            0      0.00%     66.25% # Class of committed instruction
system.switch_cpus.commit.op_class_0::SimdSqrt            0      0.00%     66.25% # Class of committed instruction
system.switch_cpus.commit.op_class_0::SimdFloatAdd            0      0.00%     66.25% # Class of committed instruction
system.switch_cpus.commit.op_class_0::SimdFloatAlu            0      0.00%     66.25% # Class of committed instruction
system.switch_cpus.commit.op_class_0::SimdFloatCmp            0      0.00%     66.25% # Class of committed instruction
system.switch_cpus.commit.op_class_0::SimdFloatCvt            0      0.00%     66.25% # Class of committed instruction
system.switch_cpus.commit.op_class_0::SimdFloatDiv            0      0.00%     66.25% # Class of committed instruction
system.switch_cpus.commit.op_class_0::SimdFloatMisc            0      0.00%     66.25% # Class of committed instruction
system.switch_cpus.commit.op_class_0::SimdFloatMult            0      0.00%     66.25% # Class of committed instruction
system.switch_cpus.commit.op_class_0::SimdFloatMultAcc            0      0.00%     66.25% # Class of committed instruction
system.switch_cpus.commit.op_class_0::SimdFloatSqrt            0      0.00%     66.25% # Class of committed instruction
system.switch_cpus.commit.op_class_0::MemRead     23453346     20.78%     87.03% # Class of committed instruction
system.switch_cpus.commit.op_class_0::MemWrite     14500131     12.85%     99.88% # Class of committed instruction
system.switch_cpus.commit.op_class_0::IprAccess       133426      0.12%    100.00% # Class of committed instruction
system.switch_cpus.commit.op_class_0::InstPrefetch            0      0.00%    100.00% # Class of committed instruction
system.switch_cpus.commit.op_class_0::total    112839888                       # Class of committed instruction
system.switch_cpus.commit.bw_lim_events       6588903                       # number cycles where commit BW limit reached
system.switch_cpus.rob.rob_reads            181234186                       # The number of ROB reads
system.switch_cpus.rob.rob_writes           229870848                       # The number of ROB writes
system.switch_cpus.timesIdled                   62047                       # Number of times that the entire CPU went into an idle state and unscheduled itself
system.switch_cpus.idleCycles                 4439913                       # Total number of cycles that the CPU has spent unscheduled due to idling
system.switch_cpus.quiesceCycles              1082662                       # Total number of cycles that CPU has spent quiesced or waiting for an interrupt
system.switch_cpus.committedInsts           101560471                       # Number of Instructions Simulated
system.switch_cpus.committedOps             101560471                       # Number of Ops (including micro ops) Simulated
system.switch_cpus.cpi                       0.766769                       # CPI: Cycles Per Instruction
system.switch_cpus.cpi_total                 0.766769                       # CPI: Total CPI of All Threads
system.switch_cpus.ipc                       1.304174                       # IPC: Instructions Per Cycle
system.switch_cpus.ipc_total                 1.304174                       # IPC: Total IPC of All Threads
system.switch_cpus.int_regfile_reads        135216455                       # number of integer regfile reads
system.switch_cpus.int_regfile_writes        71829844                       # number of integer regfile writes
system.switch_cpus.fp_regfile_reads              3157                       # number of floating regfile reads
system.switch_cpus.fp_regfile_writes             2838                       # number of floating regfile writes
system.switch_cpus.misc_regfile_reads          334417                       # number of misc regfile reads
system.switch_cpus.misc_regfile_writes         261924                       # number of misc regfile writes
system.tol2bus.trans_dist::ReadReq             421952                       # Transaction distribution
system.tol2bus.trans_dist::ReadResp            421947                       # Transaction distribution
system.tol2bus.trans_dist::WriteReq               318                       # Transaction distribution
system.tol2bus.trans_dist::WriteResp              318                       # Transaction distribution
system.tol2bus.trans_dist::Writeback           308268                       # Transaction distribution
system.tol2bus.trans_dist::WriteInvalidateReq         1344                       # Transaction distribution
system.tol2bus.trans_dist::UpgradeReq              55                       # Transaction distribution
system.tol2bus.trans_dist::SCUpgradeReq            12                       # Transaction distribution
system.tol2bus.trans_dist::UpgradeResp             67                       # Transaction distribution
system.tol2bus.trans_dist::ReadExReq            41052                       # Transaction distribution
system.tol2bus.trans_dist::ReadExResp           41052                       # Transaction distribution
system.tol2bus.trans_dist::BadAddressError            4                       # Transaction distribution
system.tol2bus.pkt_count_system.cpu.icache.mem_side::system.l2.cpu_side       146794                       # Packet count per connected master and slave (bytes)
system.tol2bus.pkt_count_system.cpu.dcache.mem_side::system.l2.cpu_side      1088162                       # Packet count per connected master and slave (bytes)
system.tol2bus.pkt_count::total               1234956                       # Packet count per connected master and slave (bytes)
system.tol2bus.pkt_size_system.cpu.icache.mem_side::system.l2.cpu_side      4694784                       # Cumulative packet size per connected master and slave (bytes)
system.tol2bus.pkt_size_system.cpu.dcache.mem_side::system.l2.cpu_side     44627792                       # Cumulative packet size per connected master and slave (bytes)
system.tol2bus.pkt_size::total               49322576                       # Cumulative packet size per connected master and slave (bytes)
system.tol2bus.snoops                            1438                       # Total snoops (count)
system.tol2bus.snoop_fanout::samples           773001                       # Request fanout histogram
system.tol2bus.snoop_fanout::mean            1.001746                       # Request fanout histogram
system.tol2bus.snoop_fanout::stdev           0.041754                       # Request fanout histogram
system.tol2bus.snoop_fanout::underflows             0      0.00%      0.00% # Request fanout histogram
system.tol2bus.snoop_fanout::0                      0      0.00%      0.00% # Request fanout histogram
system.tol2bus.snoop_fanout::1                 771651     99.83%     99.83% # Request fanout histogram
system.tol2bus.snoop_fanout::2                   1350      0.17%    100.00% # Request fanout histogram
system.tol2bus.snoop_fanout::overflows              0      0.00%    100.00% # Request fanout histogram
system.tol2bus.snoop_fanout::min_value              1                       # Request fanout histogram
system.tol2bus.snoop_fanout::max_value              2                       # Request fanout histogram
system.tol2bus.snoop_fanout::total             773001                       # Request fanout histogram
system.tol2bus.reqLayer0.occupancy          694252500                       # Layer occupancy (ticks)
system.tol2bus.reqLayer0.utilization              1.8                       # Layer utilization (%)
system.tol2bus.snoopLayer0.occupancy             7500                       # Layer occupancy (ticks)
system.tol2bus.snoopLayer0.utilization            0.0                       # Layer utilization (%)
system.tol2bus.respLayer0.occupancy         117844390                       # Layer occupancy (ticks)
system.tol2bus.respLayer0.utilization             0.3                       # Layer utilization (%)
system.tol2bus.respLayer1.occupancy         644821260                       # Layer occupancy (ticks)
system.tol2bus.respLayer1.utilization             1.6                       # Layer utilization (%)
system.tsunami.ethernet.descDMAReads                0                       # Number of descriptors the device read w/ DMA
system.tsunami.ethernet.descDMAWrites               0                       # Number of descriptors the device wrote w/ DMA
system.tsunami.ethernet.descDmaReadBytes            0                       # number of descriptor bytes read w/ DMA
system.tsunami.ethernet.descDmaWriteBytes            0                       # number of descriptor bytes write w/ DMA
system.tsunami.ethernet.postedSwi                   0                       # number of software interrupts posted to CPU
system.tsunami.ethernet.coalescedSwi              nan                       # average number of Swi's coalesced into each post
system.tsunami.ethernet.totalSwi                    0                       # total number of Swi written to ISR
system.tsunami.ethernet.postedRxIdle                0                       # number of rxIdle interrupts posted to CPU
system.tsunami.ethernet.coalescedRxIdle           nan                       # average number of RxIdle's coalesced into each post
system.tsunami.ethernet.totalRxIdle                 0                       # total number of RxIdle written to ISR
system.tsunami.ethernet.postedRxOk                  0                       # number of RxOk interrupts posted to CPU
system.tsunami.ethernet.coalescedRxOk             nan                       # average number of RxOk's coalesced into each post
system.tsunami.ethernet.totalRxOk                   0                       # total number of RxOk written to ISR
system.tsunami.ethernet.postedRxDesc                0                       # number of RxDesc interrupts posted to CPU
system.tsunami.ethernet.coalescedRxDesc           nan                       # average number of RxDesc's coalesced into each post
system.tsunami.ethernet.totalRxDesc                 0                       # total number of RxDesc written to ISR
system.tsunami.ethernet.postedTxOk                  0                       # number of TxOk interrupts posted to CPU
system.tsunami.ethernet.coalescedTxOk             nan                       # average number of TxOk's coalesced into each post
system.tsunami.ethernet.totalTxOk                   0                       # total number of TxOk written to ISR
system.tsunami.ethernet.postedTxIdle                0                       # number of TxIdle interrupts posted to CPU
system.tsunami.ethernet.coalescedTxIdle           nan                       # average number of TxIdle's coalesced into each post
system.tsunami.ethernet.totalTxIdle                 0                       # total number of TxIdle written to ISR
system.tsunami.ethernet.postedTxDesc                0                       # number of TxDesc interrupts posted to CPU
system.tsunami.ethernet.coalescedTxDesc           nan                       # average number of TxDesc's coalesced into each post
system.tsunami.ethernet.totalTxDesc                 0                       # total number of TxDesc written to ISR
system.tsunami.ethernet.postedRxOrn                 0                       # number of RxOrn posted to CPU
system.tsunami.ethernet.coalescedRxOrn            nan                       # average number of RxOrn's coalesced into each post
system.tsunami.ethernet.totalRxOrn                  0                       # total number of RxOrn written to ISR
system.tsunami.ethernet.coalescedTotal            nan                       # average number of interrupts coalesced into each post
system.tsunami.ethernet.postedInterrupts            0                       # number of posts to CPU
system.tsunami.ethernet.droppedPackets              0                       # number of packets dropped
system.switch_cpus.kern.inst.arm                    0                       # number of arm instructions executed
system.switch_cpus.kern.inst.quiesce                0                       # number of quiesce instructions executed
system.switch_cpus.kern.inst.hwrei                  0                       # number of hwrei instructions executed
system.switch_cpus.kern.mode_switch::kernel            0                       # number of protection mode switches
system.switch_cpus.kern.mode_switch::user            0                       # number of protection mode switches
system.switch_cpus.kern.mode_switch::idle            0                       # number of protection mode switches
system.switch_cpus.kern.mode_good::kernel            0                      
system.switch_cpus.kern.mode_good::user             0                      
system.switch_cpus.kern.mode_good::idle             0                      
system.switch_cpus.kern.mode_switch_good::kernel          nan                       # fraction of useful protection mode switches
system.switch_cpus.kern.mode_switch_good::user          nan                       # fraction of useful protection mode switches
system.switch_cpus.kern.mode_switch_good::idle          nan                       # fraction of useful protection mode switches
system.switch_cpus.kern.mode_switch_good::total          nan                       # fraction of useful protection mode switches
system.switch_cpus.kern.mode_ticks::kernel            0                       # number of ticks spent at the given mode
system.switch_cpus.kern.mode_ticks::user            0                       # number of ticks spent at the given mode
system.switch_cpus.kern.mode_ticks::idle            0                       # number of ticks spent at the given mode
system.switch_cpus.kern.swap_context                0                       # number of times the context was actually changed

---------- End Simulation Statistics   ----------
