
---------- Begin Simulation Statistics ----------
sim_seconds                                  0.001187                       # Number of seconds simulated
sim_ticks                                  1186811000                       # Number of ticks simulated
final_tick                               2262464794000                       # Number of ticks from beginning of simulation (restored from checkpoints and never reset)
sim_freq                                 1000000000000                       # Frequency of simulated ticks
host_inst_rate                               32896421                       # Simulator instruction rate (inst/s)
host_op_rate                                 32896350                       # Simulator op (including micro ops) rate (op/s)
host_tick_rate                              331022660                       # Simulator tick rate (ticks/s)
host_mem_usage                                 741904                       # Number of bytes of host memory used
host_seconds                                     3.59                       # Real time elapsed on the host
sim_insts                                   117942606                       # Number of instructions simulated
sim_ops                                     117942606                       # Number of ops (including micro ops) simulated
system.voltage_domain.voltage                       1                       # Voltage in Volts
system.clk_domain.clock                          1000                       # Clock period in ticks
system.mem_ctrls.bytes_read::switch_cpus0.inst       183360                       # Number of bytes read from this memory
system.mem_ctrls.bytes_read::switch_cpus0.data       245696                       # Number of bytes read from this memory
system.mem_ctrls.bytes_read::switch_cpus1.inst        73856                       # Number of bytes read from this memory
system.mem_ctrls.bytes_read::switch_cpus1.data       136064                       # Number of bytes read from this memory
system.mem_ctrls.bytes_read::switch_cpus2.inst         3392                       # Number of bytes read from this memory
system.mem_ctrls.bytes_read::switch_cpus2.data         2048                       # Number of bytes read from this memory
system.mem_ctrls.bytes_read::switch_cpus3.inst       239360                       # Number of bytes read from this memory
system.mem_ctrls.bytes_read::switch_cpus3.data       696384                       # Number of bytes read from this memory
system.mem_ctrls.bytes_read::total            1580160                       # Number of bytes read from this memory
system.mem_ctrls.bytes_inst_read::switch_cpus0.inst       183360                       # Number of instructions bytes read from this memory
system.mem_ctrls.bytes_inst_read::switch_cpus1.inst        73856                       # Number of instructions bytes read from this memory
system.mem_ctrls.bytes_inst_read::switch_cpus2.inst         3392                       # Number of instructions bytes read from this memory
system.mem_ctrls.bytes_inst_read::switch_cpus3.inst       239360                       # Number of instructions bytes read from this memory
system.mem_ctrls.bytes_inst_read::total        499968                       # Number of instructions bytes read from this memory
system.mem_ctrls.bytes_written::writebacks       666368                       # Number of bytes written to this memory
system.mem_ctrls.bytes_written::total          666368                       # Number of bytes written to this memory
system.mem_ctrls.num_reads::switch_cpus0.inst         2865                       # Number of read requests responded to by this memory
system.mem_ctrls.num_reads::switch_cpus0.data         3839                       # Number of read requests responded to by this memory
system.mem_ctrls.num_reads::switch_cpus1.inst         1154                       # Number of read requests responded to by this memory
system.mem_ctrls.num_reads::switch_cpus1.data         2126                       # Number of read requests responded to by this memory
system.mem_ctrls.num_reads::switch_cpus2.inst           53                       # Number of read requests responded to by this memory
system.mem_ctrls.num_reads::switch_cpus2.data           32                       # Number of read requests responded to by this memory
system.mem_ctrls.num_reads::switch_cpus3.inst         3740                       # Number of read requests responded to by this memory
system.mem_ctrls.num_reads::switch_cpus3.data        10881                       # Number of read requests responded to by this memory
system.mem_ctrls.num_reads::total               24690                       # Number of read requests responded to by this memory
system.mem_ctrls.num_writes::writebacks         10412                       # Number of write requests responded to by this memory
system.mem_ctrls.num_writes::total              10412                       # Number of write requests responded to by this memory
system.mem_ctrls.bw_read::switch_cpus0.inst    154498062                       # Total read bandwidth from this memory (bytes/s)
system.mem_ctrls.bw_read::switch_cpus0.data    207022011                       # Total read bandwidth from this memory (bytes/s)
system.mem_ctrls.bw_read::switch_cpus1.inst     62230633                       # Total read bandwidth from this memory (bytes/s)
system.mem_ctrls.bw_read::switch_cpus1.data    114646730                       # Total read bandwidth from this memory (bytes/s)
system.mem_ctrls.bw_read::switch_cpus2.inst      2858079                       # Total read bandwidth from this memory (bytes/s)
system.mem_ctrls.bw_read::switch_cpus2.data      1725633                       # Total read bandwidth from this memory (bytes/s)
system.mem_ctrls.bw_read::switch_cpus3.inst    201683335                       # Total read bandwidth from this memory (bytes/s)
system.mem_ctrls.bw_read::switch_cpus3.data    586769081                       # Total read bandwidth from this memory (bytes/s)
system.mem_ctrls.bw_read::total            1331433564                       # Total read bandwidth from this memory (bytes/s)
system.mem_ctrls.bw_inst_read::switch_cpus0.inst    154498062                       # Instruction read bandwidth from this memory (bytes/s)
system.mem_ctrls.bw_inst_read::switch_cpus1.inst     62230633                       # Instruction read bandwidth from this memory (bytes/s)
system.mem_ctrls.bw_inst_read::switch_cpus2.inst      2858079                       # Instruction read bandwidth from this memory (bytes/s)
system.mem_ctrls.bw_inst_read::switch_cpus3.inst    201683335                       # Instruction read bandwidth from this memory (bytes/s)
system.mem_ctrls.bw_inst_read::total        421270110                       # Instruction read bandwidth from this memory (bytes/s)
system.mem_ctrls.bw_write::writebacks       561477775                       # Write bandwidth from this memory (bytes/s)
system.mem_ctrls.bw_write::total            561477775                       # Write bandwidth from this memory (bytes/s)
system.mem_ctrls.bw_total::writebacks       561477775                       # Total bandwidth to/from this memory (bytes/s)
system.mem_ctrls.bw_total::switch_cpus0.inst    154498062                       # Total bandwidth to/from this memory (bytes/s)
system.mem_ctrls.bw_total::switch_cpus0.data    207022011                       # Total bandwidth to/from this memory (bytes/s)
system.mem_ctrls.bw_total::switch_cpus1.inst     62230633                       # Total bandwidth to/from this memory (bytes/s)
system.mem_ctrls.bw_total::switch_cpus1.data    114646730                       # Total bandwidth to/from this memory (bytes/s)
system.mem_ctrls.bw_total::switch_cpus2.inst      2858079                       # Total bandwidth to/from this memory (bytes/s)
system.mem_ctrls.bw_total::switch_cpus2.data      1725633                       # Total bandwidth to/from this memory (bytes/s)
system.mem_ctrls.bw_total::switch_cpus3.inst    201683335                       # Total bandwidth to/from this memory (bytes/s)
system.mem_ctrls.bw_total::switch_cpus3.data    586769081                       # Total bandwidth to/from this memory (bytes/s)
system.mem_ctrls.bw_total::total           1892911340                       # Total bandwidth to/from this memory (bytes/s)
system.mem_ctrls.readReqs                       24690                       # Number of read requests accepted
system.mem_ctrls.writeReqs                      10412                       # Number of write requests accepted
system.mem_ctrls.readBursts                     24690                       # Number of DRAM read bursts, including those serviced by the write queue
system.mem_ctrls.writeBursts                    10412                       # Number of DRAM write bursts, including those merged in the write queue
system.mem_ctrls.bytesReadDRAM                1576320                       # Total number of bytes read from DRAM
system.mem_ctrls.bytesReadWrQ                    3840                       # Total number of bytes read from write queue
system.mem_ctrls.bytesWritten                  664320                       # Total number of bytes written to DRAM
system.mem_ctrls.bytesReadSys                 1580160                       # Total read bytes from the system interface side
system.mem_ctrls.bytesWrittenSys               666368                       # Total written bytes from the system interface side
system.mem_ctrls.servicedByWrQ                     60                       # Number of DRAM read bursts serviced by the write queue
system.mem_ctrls.mergedWrBursts                     0                       # Number of DRAM write bursts merged with an existing one
system.mem_ctrls.neitherReadNorWriteReqs           57                       # Number of requests that are neither read nor write
system.mem_ctrls.perBankRdBursts::0              1145                       # Per bank write bursts
system.mem_ctrls.perBankRdBursts::1              1201                       # Per bank write bursts
system.mem_ctrls.perBankRdBursts::2              1572                       # Per bank write bursts
system.mem_ctrls.perBankRdBursts::3               975                       # Per bank write bursts
system.mem_ctrls.perBankRdBursts::4              1283                       # Per bank write bursts
system.mem_ctrls.perBankRdBursts::5              1942                       # Per bank write bursts
system.mem_ctrls.perBankRdBursts::6              1414                       # Per bank write bursts
system.mem_ctrls.perBankRdBursts::7              1203                       # Per bank write bursts
system.mem_ctrls.perBankRdBursts::8              1809                       # Per bank write bursts
system.mem_ctrls.perBankRdBursts::9              1952                       # Per bank write bursts
system.mem_ctrls.perBankRdBursts::10             1417                       # Per bank write bursts
system.mem_ctrls.perBankRdBursts::11             1303                       # Per bank write bursts
system.mem_ctrls.perBankRdBursts::12             1752                       # Per bank write bursts
system.mem_ctrls.perBankRdBursts::13             2421                       # Per bank write bursts
system.mem_ctrls.perBankRdBursts::14             1693                       # Per bank write bursts
system.mem_ctrls.perBankRdBursts::15             1548                       # Per bank write bursts
system.mem_ctrls.perBankWrBursts::0               424                       # Per bank write bursts
system.mem_ctrls.perBankWrBursts::1               625                       # Per bank write bursts
system.mem_ctrls.perBankWrBursts::2               392                       # Per bank write bursts
system.mem_ctrls.perBankWrBursts::3               203                       # Per bank write bursts
system.mem_ctrls.perBankWrBursts::4               309                       # Per bank write bursts
system.mem_ctrls.perBankWrBursts::5               805                       # Per bank write bursts
system.mem_ctrls.perBankWrBursts::6               388                       # Per bank write bursts
system.mem_ctrls.perBankWrBursts::7               304                       # Per bank write bursts
system.mem_ctrls.perBankWrBursts::8               453                       # Per bank write bursts
system.mem_ctrls.perBankWrBursts::9               604                       # Per bank write bursts
system.mem_ctrls.perBankWrBursts::10              759                       # Per bank write bursts
system.mem_ctrls.perBankWrBursts::11              758                       # Per bank write bursts
system.mem_ctrls.perBankWrBursts::12             1134                       # Per bank write bursts
system.mem_ctrls.perBankWrBursts::13             1213                       # Per bank write bursts
system.mem_ctrls.perBankWrBursts::14             1052                       # Per bank write bursts
system.mem_ctrls.perBankWrBursts::15              957                       # Per bank write bursts
system.mem_ctrls.numRdRetry                         0                       # Number of times read queue was full causing retry
system.mem_ctrls.numWrRetry                         0                       # Number of times write queue was full causing retry
system.mem_ctrls.totGap                    1186723500                       # Total gap between requests
system.mem_ctrls.readPktSize::0                     0                       # Read request sizes (log2)
system.mem_ctrls.readPktSize::1                     0                       # Read request sizes (log2)
system.mem_ctrls.readPktSize::2                     0                       # Read request sizes (log2)
system.mem_ctrls.readPktSize::3                     0                       # Read request sizes (log2)
system.mem_ctrls.readPktSize::4                     0                       # Read request sizes (log2)
system.mem_ctrls.readPktSize::5                     0                       # Read request sizes (log2)
system.mem_ctrls.readPktSize::6                 24690                       # Read request sizes (log2)
system.mem_ctrls.writePktSize::0                    0                       # Write request sizes (log2)
system.mem_ctrls.writePktSize::1                    0                       # Write request sizes (log2)
system.mem_ctrls.writePktSize::2                    0                       # Write request sizes (log2)
system.mem_ctrls.writePktSize::3                    0                       # Write request sizes (log2)
system.mem_ctrls.writePktSize::4                    0                       # Write request sizes (log2)
system.mem_ctrls.writePktSize::5                    0                       # Write request sizes (log2)
system.mem_ctrls.writePktSize::6                10412                       # Write request sizes (log2)
system.mem_ctrls.rdQLenPdf::0                   11366                       # What read queue length does an incoming req see
system.mem_ctrls.rdQLenPdf::1                    6789                       # What read queue length does an incoming req see
system.mem_ctrls.rdQLenPdf::2                    3885                       # What read queue length does an incoming req see
system.mem_ctrls.rdQLenPdf::3                    2120                       # What read queue length does an incoming req see
system.mem_ctrls.rdQLenPdf::4                     286                       # What read queue length does an incoming req see
system.mem_ctrls.rdQLenPdf::5                     114                       # What read queue length does an incoming req see
system.mem_ctrls.rdQLenPdf::6                      43                       # What read queue length does an incoming req see
system.mem_ctrls.rdQLenPdf::7                      21                       # What read queue length does an incoming req see
system.mem_ctrls.rdQLenPdf::8                       3                       # What read queue length does an incoming req see
system.mem_ctrls.rdQLenPdf::9                       1                       # What read queue length does an incoming req see
system.mem_ctrls.rdQLenPdf::10                      1                       # What read queue length does an incoming req see
system.mem_ctrls.rdQLenPdf::11                      1                       # What read queue length does an incoming req see
system.mem_ctrls.rdQLenPdf::12                      0                       # What read queue length does an incoming req see
system.mem_ctrls.rdQLenPdf::13                      0                       # What read queue length does an incoming req see
system.mem_ctrls.rdQLenPdf::14                      0                       # What read queue length does an incoming req see
system.mem_ctrls.rdQLenPdf::15                      0                       # What read queue length does an incoming req see
system.mem_ctrls.rdQLenPdf::16                      0                       # What read queue length does an incoming req see
system.mem_ctrls.rdQLenPdf::17                      0                       # What read queue length does an incoming req see
system.mem_ctrls.rdQLenPdf::18                      0                       # What read queue length does an incoming req see
system.mem_ctrls.rdQLenPdf::19                      0                       # What read queue length does an incoming req see
system.mem_ctrls.rdQLenPdf::20                      0                       # What read queue length does an incoming req see
system.mem_ctrls.rdQLenPdf::21                      0                       # What read queue length does an incoming req see
system.mem_ctrls.rdQLenPdf::22                      0                       # What read queue length does an incoming req see
system.mem_ctrls.rdQLenPdf::23                      0                       # What read queue length does an incoming req see
system.mem_ctrls.rdQLenPdf::24                      0                       # What read queue length does an incoming req see
system.mem_ctrls.rdQLenPdf::25                      0                       # What read queue length does an incoming req see
system.mem_ctrls.rdQLenPdf::26                      0                       # What read queue length does an incoming req see
system.mem_ctrls.rdQLenPdf::27                      0                       # What read queue length does an incoming req see
system.mem_ctrls.rdQLenPdf::28                      0                       # What read queue length does an incoming req see
system.mem_ctrls.rdQLenPdf::29                      0                       # What read queue length does an incoming req see
system.mem_ctrls.rdQLenPdf::30                      0                       # What read queue length does an incoming req see
system.mem_ctrls.rdQLenPdf::31                      0                       # What read queue length does an incoming req see
system.mem_ctrls.wrQLenPdf::0                       1                       # What write queue length does an incoming req see
system.mem_ctrls.wrQLenPdf::1                       1                       # What write queue length does an incoming req see
system.mem_ctrls.wrQLenPdf::2                       1                       # What write queue length does an incoming req see
system.mem_ctrls.wrQLenPdf::3                       1                       # What write queue length does an incoming req see
system.mem_ctrls.wrQLenPdf::4                       1                       # What write queue length does an incoming req see
system.mem_ctrls.wrQLenPdf::5                       1                       # What write queue length does an incoming req see
system.mem_ctrls.wrQLenPdf::6                       1                       # What write queue length does an incoming req see
system.mem_ctrls.wrQLenPdf::7                       1                       # What write queue length does an incoming req see
system.mem_ctrls.wrQLenPdf::8                       1                       # What write queue length does an incoming req see
system.mem_ctrls.wrQLenPdf::9                       1                       # What write queue length does an incoming req see
system.mem_ctrls.wrQLenPdf::10                      1                       # What write queue length does an incoming req see
system.mem_ctrls.wrQLenPdf::11                      1                       # What write queue length does an incoming req see
system.mem_ctrls.wrQLenPdf::12                      1                       # What write queue length does an incoming req see
system.mem_ctrls.wrQLenPdf::13                      1                       # What write queue length does an incoming req see
system.mem_ctrls.wrQLenPdf::14                      1                       # What write queue length does an incoming req see
system.mem_ctrls.wrQLenPdf::15                     50                       # What write queue length does an incoming req see
system.mem_ctrls.wrQLenPdf::16                     55                       # What write queue length does an incoming req see
system.mem_ctrls.wrQLenPdf::17                    310                       # What write queue length does an incoming req see
system.mem_ctrls.wrQLenPdf::18                    476                       # What write queue length does an incoming req see
system.mem_ctrls.wrQLenPdf::19                    574                       # What write queue length does an incoming req see
system.mem_ctrls.wrQLenPdf::20                    652                       # What write queue length does an incoming req see
system.mem_ctrls.wrQLenPdf::21                    658                       # What write queue length does an incoming req see
system.mem_ctrls.wrQLenPdf::22                    659                       # What write queue length does an incoming req see
system.mem_ctrls.wrQLenPdf::23                    672                       # What write queue length does an incoming req see
system.mem_ctrls.wrQLenPdf::24                    678                       # What write queue length does an incoming req see
system.mem_ctrls.wrQLenPdf::25                    679                       # What write queue length does an incoming req see
system.mem_ctrls.wrQLenPdf::26                    772                       # What write queue length does an incoming req see
system.mem_ctrls.wrQLenPdf::27                    695                       # What write queue length does an incoming req see
system.mem_ctrls.wrQLenPdf::28                    717                       # What write queue length does an incoming req see
system.mem_ctrls.wrQLenPdf::29                    742                       # What write queue length does an incoming req see
system.mem_ctrls.wrQLenPdf::30                    681                       # What write queue length does an incoming req see
system.mem_ctrls.wrQLenPdf::31                    677                       # What write queue length does an incoming req see
system.mem_ctrls.wrQLenPdf::32                    643                       # What write queue length does an incoming req see
system.mem_ctrls.wrQLenPdf::33                      5                       # What write queue length does an incoming req see
system.mem_ctrls.wrQLenPdf::34                      1                       # What write queue length does an incoming req see
system.mem_ctrls.wrQLenPdf::35                      1                       # What write queue length does an incoming req see
system.mem_ctrls.wrQLenPdf::36                      0                       # What write queue length does an incoming req see
system.mem_ctrls.wrQLenPdf::37                      0                       # What write queue length does an incoming req see
system.mem_ctrls.wrQLenPdf::38                      0                       # What write queue length does an incoming req see
system.mem_ctrls.wrQLenPdf::39                      0                       # What write queue length does an incoming req see
system.mem_ctrls.wrQLenPdf::40                      0                       # What write queue length does an incoming req see
system.mem_ctrls.wrQLenPdf::41                      0                       # What write queue length does an incoming req see
system.mem_ctrls.wrQLenPdf::42                      0                       # What write queue length does an incoming req see
system.mem_ctrls.wrQLenPdf::43                      0                       # What write queue length does an incoming req see
system.mem_ctrls.wrQLenPdf::44                      0                       # What write queue length does an incoming req see
system.mem_ctrls.wrQLenPdf::45                      0                       # What write queue length does an incoming req see
system.mem_ctrls.wrQLenPdf::46                      0                       # What write queue length does an incoming req see
system.mem_ctrls.wrQLenPdf::47                      0                       # What write queue length does an incoming req see
system.mem_ctrls.wrQLenPdf::48                      0                       # What write queue length does an incoming req see
system.mem_ctrls.wrQLenPdf::49                      0                       # What write queue length does an incoming req see
system.mem_ctrls.wrQLenPdf::50                      0                       # What write queue length does an incoming req see
system.mem_ctrls.wrQLenPdf::51                      0                       # What write queue length does an incoming req see
system.mem_ctrls.wrQLenPdf::52                      0                       # What write queue length does an incoming req see
system.mem_ctrls.wrQLenPdf::53                      0                       # What write queue length does an incoming req see
system.mem_ctrls.wrQLenPdf::54                      0                       # What write queue length does an incoming req see
system.mem_ctrls.wrQLenPdf::55                      0                       # What write queue length does an incoming req see
system.mem_ctrls.wrQLenPdf::56                      0                       # What write queue length does an incoming req see
system.mem_ctrls.wrQLenPdf::57                      0                       # What write queue length does an incoming req see
system.mem_ctrls.wrQLenPdf::58                      0                       # What write queue length does an incoming req see
system.mem_ctrls.wrQLenPdf::59                      0                       # What write queue length does an incoming req see
system.mem_ctrls.wrQLenPdf::60                      0                       # What write queue length does an incoming req see
system.mem_ctrls.wrQLenPdf::61                      0                       # What write queue length does an incoming req see
system.mem_ctrls.wrQLenPdf::62                      0                       # What write queue length does an incoming req see
system.mem_ctrls.wrQLenPdf::63                      0                       # What write queue length does an incoming req see
system.mem_ctrls.bytesPerActivate::samples         9278                       # Bytes accessed per row activation
system.mem_ctrls.bytesPerActivate::mean    241.196810                       # Bytes accessed per row activation
system.mem_ctrls.bytesPerActivate::gmean   141.505480                       # Bytes accessed per row activation
system.mem_ctrls.bytesPerActivate::stdev   293.548652                       # Bytes accessed per row activation
system.mem_ctrls.bytesPerActivate::0-127         4473     48.21%     48.21% # Bytes accessed per row activation
system.mem_ctrls.bytesPerActivate::128-255         2259     24.35%     72.56% # Bytes accessed per row activation
system.mem_ctrls.bytesPerActivate::256-383          727      7.84%     80.39% # Bytes accessed per row activation
system.mem_ctrls.bytesPerActivate::384-511          366      3.94%     84.34% # Bytes accessed per row activation
system.mem_ctrls.bytesPerActivate::512-639          259      2.79%     87.13% # Bytes accessed per row activation
system.mem_ctrls.bytesPerActivate::640-767          166      1.79%     88.92% # Bytes accessed per row activation
system.mem_ctrls.bytesPerActivate::768-895          152      1.64%     90.56% # Bytes accessed per row activation
system.mem_ctrls.bytesPerActivate::896-1023           90      0.97%     91.53% # Bytes accessed per row activation
system.mem_ctrls.bytesPerActivate::1024-1151          786      8.47%    100.00% # Bytes accessed per row activation
system.mem_ctrls.bytesPerActivate::total         9278                       # Bytes accessed per row activation
system.mem_ctrls.rdPerTurnAround::samples          640                       # Reads before turning the bus around for writes
system.mem_ctrls.rdPerTurnAround::mean      38.404688                       # Reads before turning the bus around for writes
system.mem_ctrls.rdPerTurnAround::gmean     31.806391                       # Reads before turning the bus around for writes
system.mem_ctrls.rdPerTurnAround::stdev     26.199672                       # Reads before turning the bus around for writes
system.mem_ctrls.rdPerTurnAround::8-15             27      4.22%      4.22% # Reads before turning the bus around for writes
system.mem_ctrls.rdPerTurnAround::16-23           211     32.97%     37.19% # Reads before turning the bus around for writes
system.mem_ctrls.rdPerTurnAround::24-31            95     14.84%     52.03% # Reads before turning the bus around for writes
system.mem_ctrls.rdPerTurnAround::32-39            69     10.78%     62.81% # Reads before turning the bus around for writes
system.mem_ctrls.rdPerTurnAround::40-47            62      9.69%     72.50% # Reads before turning the bus around for writes
system.mem_ctrls.rdPerTurnAround::48-55            55      8.59%     81.09% # Reads before turning the bus around for writes
system.mem_ctrls.rdPerTurnAround::56-63            30      4.69%     85.78% # Reads before turning the bus around for writes
system.mem_ctrls.rdPerTurnAround::64-71            27      4.22%     90.00% # Reads before turning the bus around for writes
system.mem_ctrls.rdPerTurnAround::72-79            13      2.03%     92.03% # Reads before turning the bus around for writes
system.mem_ctrls.rdPerTurnAround::80-87            13      2.03%     94.06% # Reads before turning the bus around for writes
system.mem_ctrls.rdPerTurnAround::88-95             7      1.09%     95.16% # Reads before turning the bus around for writes
system.mem_ctrls.rdPerTurnAround::96-103            9      1.41%     96.56% # Reads before turning the bus around for writes
system.mem_ctrls.rdPerTurnAround::104-111            9      1.41%     97.97% # Reads before turning the bus around for writes
system.mem_ctrls.rdPerTurnAround::112-119            3      0.47%     98.44% # Reads before turning the bus around for writes
system.mem_ctrls.rdPerTurnAround::120-127            4      0.62%     99.06% # Reads before turning the bus around for writes
system.mem_ctrls.rdPerTurnAround::128-135            3      0.47%     99.53% # Reads before turning the bus around for writes
system.mem_ctrls.rdPerTurnAround::144-151            1      0.16%     99.69% # Reads before turning the bus around for writes
system.mem_ctrls.rdPerTurnAround::152-159            1      0.16%     99.84% # Reads before turning the bus around for writes
system.mem_ctrls.rdPerTurnAround::224-231            1      0.16%    100.00% # Reads before turning the bus around for writes
system.mem_ctrls.rdPerTurnAround::total           640                       # Reads before turning the bus around for writes
system.mem_ctrls.wrPerTurnAround::samples          640                       # Writes before turning the bus around for reads
system.mem_ctrls.wrPerTurnAround::mean      16.218750                       # Writes before turning the bus around for reads
system.mem_ctrls.wrPerTurnAround::gmean     16.202012                       # Writes before turning the bus around for reads
system.mem_ctrls.wrPerTurnAround::stdev      0.792546                       # Writes before turning the bus around for reads
system.mem_ctrls.wrPerTurnAround::16              582     90.94%     90.94% # Writes before turning the bus around for reads
system.mem_ctrls.wrPerTurnAround::17                5      0.78%     91.72% # Writes before turning the bus around for reads
system.mem_ctrls.wrPerTurnAround::18               36      5.62%     97.34% # Writes before turning the bus around for reads
system.mem_ctrls.wrPerTurnAround::19               13      2.03%     99.38% # Writes before turning the bus around for reads
system.mem_ctrls.wrPerTurnAround::20                1      0.16%     99.53% # Writes before turning the bus around for reads
system.mem_ctrls.wrPerTurnAround::21                2      0.31%     99.84% # Writes before turning the bus around for reads
system.mem_ctrls.wrPerTurnAround::26                1      0.16%    100.00% # Writes before turning the bus around for reads
system.mem_ctrls.wrPerTurnAround::total           640                       # Writes before turning the bus around for reads
system.mem_ctrls.totQLat                    503099000                       # Total ticks spent queuing
system.mem_ctrls.totMemAccLat               964911500                       # Total ticks spent from burst creation until serviced by the DRAM
system.mem_ctrls.totBusLat                  123150000                       # Total ticks spent in databus transfers
system.mem_ctrls.avgQLat                     20426.27                       # Average queueing delay per DRAM burst
system.mem_ctrls.avgBusLat                    5000.00                       # Average bus latency per DRAM burst
system.mem_ctrls.avgMemAccLat                39176.27                       # Average memory access latency per DRAM burst
system.mem_ctrls.avgRdBW                      1328.20                       # Average DRAM read bandwidth in MiByte/s
system.mem_ctrls.avgWrBW                       559.75                       # Average achieved write bandwidth in MiByte/s
system.mem_ctrls.avgRdBWSys                   1331.43                       # Average system read bandwidth in MiByte/s
system.mem_ctrls.avgWrBWSys                    561.48                       # Average system write bandwidth in MiByte/s
system.mem_ctrls.peakBW                      12800.00                       # Theoretical peak bandwidth in MiByte/s
system.mem_ctrls.busUtil                        14.75                       # Data bus utilization in percentage
system.mem_ctrls.busUtilRead                    10.38                       # Data bus utilization in percentage for reads
system.mem_ctrls.busUtilWrite                    4.37                       # Data bus utilization in percentage for writes
system.mem_ctrls.avgRdQLen                       1.94                       # Average read queue length when enqueuing
system.mem_ctrls.avgWrQLen                      25.89                       # Average write queue length when enqueuing
system.mem_ctrls.readRowHits                    18324                       # Number of row buffer hits during reads
system.mem_ctrls.writeRowHits                    7397                       # Number of row buffer hits during writes
system.mem_ctrls.readRowHitRate                 74.40                       # Row buffer hit rate for reads
system.mem_ctrls.writeRowHitRate                71.04                       # Row buffer hit rate for writes
system.mem_ctrls.avgGap                      33807.86                       # Average gap between requests
system.mem_ctrls.pageHitRate                    73.40                       # Row buffer hit rate, read and write combined
system.mem_ctrls_0.actEnergy                 27397440                       # Energy for activate commands per rank (pJ)
system.mem_ctrls_0.preEnergy                 14949000                       # Energy for precharge commands per rank (pJ)
system.mem_ctrls_0.readEnergy                83530200                       # Energy for read commands per rank (pJ)
system.mem_ctrls_0.writeEnergy               22258800                       # Energy for write commands per rank (pJ)
system.mem_ctrls_0.refreshEnergy             77301120                       # Energy for refresh commands per rank (pJ)
system.mem_ctrls_0.actBackEnergy            782466075                       # Energy for active background per rank (pJ)
system.mem_ctrls_0.preBackEnergy             23888250                       # Energy for precharge background per rank (pJ)
system.mem_ctrls_0.totalEnergy             1031790885                       # Total energy per rank (pJ)
system.mem_ctrls_0.averagePower            871.614321                       # Core power per rank (mW)
system.mem_ctrls_0.memoryStateTime::IDLE     34314750                       # Time in different power states
system.mem_ctrls_0.memoryStateTime::REF      39520000                       # Time in different power states
system.mem_ctrls_0.memoryStateTime::PRE_PDN            0                       # Time in different power states
system.mem_ctrls_0.memoryStateTime::ACT    1109949000                       # Time in different power states
system.mem_ctrls_0.memoryStateTime::ACT_PDN            0                       # Time in different power states
system.mem_ctrls_1.actEnergy                 42661080                       # Energy for activate commands per rank (pJ)
system.mem_ctrls_1.preEnergy                 23277375                       # Energy for precharge commands per rank (pJ)
system.mem_ctrls_1.readEnergy               108170400                       # Energy for read commands per rank (pJ)
system.mem_ctrls_1.writeEnergy               44899920                       # Energy for write commands per rank (pJ)
system.mem_ctrls_1.refreshEnergy             77301120                       # Energy for refresh commands per rank (pJ)
system.mem_ctrls_1.actBackEnergy            788501520                       # Energy for active background per rank (pJ)
system.mem_ctrls_1.preBackEnergy             18594000                       # Energy for precharge background per rank (pJ)
system.mem_ctrls_1.totalEnergy             1103405415                       # Total energy per rank (pJ)
system.mem_ctrls_1.averagePower            932.111318                       # Core power per rank (mW)
system.mem_ctrls_1.memoryStateTime::IDLE     26216500                       # Time in different power states
system.mem_ctrls_1.memoryStateTime::REF      39520000                       # Time in different power states
system.mem_ctrls_1.memoryStateTime::PRE_PDN            0                       # Time in different power states
system.mem_ctrls_1.memoryStateTime::ACT    1118047250                       # Time in different power states
system.mem_ctrls_1.memoryStateTime::ACT_PDN            0                       # Time in different power states
system.cpu_voltage_domain.voltage                   1                       # Voltage in Volts
system.cpu_clk_domain.clock                       500                       # Clock period in ticks
system.cpu0.dtb.fetch_hits                          0                       # ITB hits
system.cpu0.dtb.fetch_misses                        0                       # ITB misses
system.cpu0.dtb.fetch_acv                           0                       # ITB acv
system.cpu0.dtb.fetch_accesses                      0                       # ITB accesses
system.cpu0.dtb.read_hits                           0                       # DTB read hits
system.cpu0.dtb.read_misses                         0                       # DTB read misses
system.cpu0.dtb.read_acv                            0                       # DTB read access violations
system.cpu0.dtb.read_accesses                       0                       # DTB read accesses
system.cpu0.dtb.write_hits                          0                       # DTB write hits
system.cpu0.dtb.write_misses                        0                       # DTB write misses
system.cpu0.dtb.write_acv                           0                       # DTB write access violations
system.cpu0.dtb.write_accesses                      0                       # DTB write accesses
system.cpu0.dtb.data_hits                           0                       # DTB hits
system.cpu0.dtb.data_misses                         0                       # DTB misses
system.cpu0.dtb.data_acv                            0                       # DTB access violations
system.cpu0.dtb.data_accesses                       0                       # DTB accesses
system.cpu0.itb.fetch_hits                          0                       # ITB hits
system.cpu0.itb.fetch_misses                        0                       # ITB misses
system.cpu0.itb.fetch_acv                           0                       # ITB acv
system.cpu0.itb.fetch_accesses                      0                       # ITB accesses
system.cpu0.itb.read_hits                           0                       # DTB read hits
system.cpu0.itb.read_misses                         0                       # DTB read misses
system.cpu0.itb.read_acv                            0                       # DTB read access violations
system.cpu0.itb.read_accesses                       0                       # DTB read accesses
system.cpu0.itb.write_hits                          0                       # DTB write hits
system.cpu0.itb.write_misses                        0                       # DTB write misses
system.cpu0.itb.write_acv                           0                       # DTB write access violations
system.cpu0.itb.write_accesses                      0                       # DTB write accesses
system.cpu0.itb.data_hits                           0                       # DTB hits
system.cpu0.itb.data_misses                         0                       # DTB misses
system.cpu0.itb.data_acv                            0                       # DTB access violations
system.cpu0.itb.data_accesses                       0                       # DTB accesses
system.cpu0.numCycles                               0                       # number of cpu cycles simulated
system.cpu0.numWorkItemsStarted                     0                       # number of work items this cpu started
system.cpu0.numWorkItemsCompleted                   0                       # number of work items this cpu completed
system.cpu0.committedInsts                          0                       # Number of instructions committed
system.cpu0.committedOps                            0                       # Number of ops (including micro ops) committed
system.cpu0.num_int_alu_accesses                    0                       # Number of integer alu accesses
system.cpu0.num_fp_alu_accesses                     0                       # Number of float alu accesses
system.cpu0.num_func_calls                          0                       # number of times a function call or return occured
system.cpu0.num_conditional_control_insts            0                       # number of instructions that are conditional controls
system.cpu0.num_int_insts                           0                       # number of integer instructions
system.cpu0.num_fp_insts                            0                       # number of float instructions
system.cpu0.num_int_register_reads                  0                       # number of times the integer registers were read
system.cpu0.num_int_register_writes                 0                       # number of times the integer registers were written
system.cpu0.num_fp_register_reads                   0                       # number of times the floating registers were read
system.cpu0.num_fp_register_writes                  0                       # number of times the floating registers were written
system.cpu0.num_mem_refs                            0                       # number of memory refs
system.cpu0.num_load_insts                          0                       # Number of load instructions
system.cpu0.num_store_insts                         0                       # Number of store instructions
system.cpu0.num_idle_cycles                         0                       # Number of idle cycles
system.cpu0.num_busy_cycles                         0                       # Number of busy cycles
system.cpu0.not_idle_fraction                       1                       # Percentage of non-idle cycles
system.cpu0.idle_fraction                           0                       # Percentage of idle cycles
system.cpu0.op_class::No_OpClass                    0                       # Class of executed instruction
system.cpu0.op_class::IntAlu                        0                       # Class of executed instruction
system.cpu0.op_class::IntMult                       0                       # Class of executed instruction
system.cpu0.op_class::IntDiv                        0                       # Class of executed instruction
system.cpu0.op_class::FloatAdd                      0                       # Class of executed instruction
system.cpu0.op_class::FloatCmp                      0                       # Class of executed instruction
system.cpu0.op_class::FloatCvt                      0                       # Class of executed instruction
system.cpu0.op_class::FloatMult                     0                       # Class of executed instruction
system.cpu0.op_class::FloatDiv                      0                       # Class of executed instruction
system.cpu0.op_class::FloatSqrt                     0                       # Class of executed instruction
system.cpu0.op_class::SimdAdd                       0                       # Class of executed instruction
system.cpu0.op_class::SimdAddAcc                    0                       # Class of executed instruction
system.cpu0.op_class::SimdAlu                       0                       # Class of executed instruction
system.cpu0.op_class::SimdCmp                       0                       # Class of executed instruction
system.cpu0.op_class::SimdCvt                       0                       # Class of executed instruction
system.cpu0.op_class::SimdMisc                      0                       # Class of executed instruction
system.cpu0.op_class::SimdMult                      0                       # Class of executed instruction
system.cpu0.op_class::SimdMultAcc                   0                       # Class of executed instruction
system.cpu0.op_class::SimdShift                     0                       # Class of executed instruction
system.cpu0.op_class::SimdShiftAcc                  0                       # Class of executed instruction
system.cpu0.op_class::SimdSqrt                      0                       # Class of executed instruction
system.cpu0.op_class::SimdFloatAdd                  0                       # Class of executed instruction
system.cpu0.op_class::SimdFloatAlu                  0                       # Class of executed instruction
system.cpu0.op_class::SimdFloatCmp                  0                       # Class of executed instruction
system.cpu0.op_class::SimdFloatCvt                  0                       # Class of executed instruction
system.cpu0.op_class::SimdFloatDiv                  0                       # Class of executed instruction
system.cpu0.op_class::SimdFloatMisc                 0                       # Class of executed instruction
system.cpu0.op_class::SimdFloatMult                 0                       # Class of executed instruction
system.cpu0.op_class::SimdFloatMultAcc              0                       # Class of executed instruction
system.cpu0.op_class::SimdFloatSqrt                 0                       # Class of executed instruction
system.cpu0.op_class::MemRead                       0                       # Class of executed instruction
system.cpu0.op_class::MemWrite                      0                       # Class of executed instruction
system.cpu0.op_class::IprAccess                     0                       # Class of executed instruction
system.cpu0.op_class::InstPrefetch                  0                       # Class of executed instruction
system.cpu0.op_class::total                         0                       # Class of executed instruction
system.cpu0.kern.inst.arm                           0                       # number of arm instructions executed
system.cpu0.kern.inst.quiesce                       3                       # number of quiesce instructions executed
system.cpu0.kern.inst.hwrei                       597                       # number of hwrei instructions executed
system.cpu0.kern.ipl_count::0                     168     46.28%     46.28% # number of times we switched to this ipl
system.cpu0.kern.ipl_count::22                      1      0.28%     46.56% # number of times we switched to this ipl
system.cpu0.kern.ipl_count::30                      1      0.28%     46.83% # number of times we switched to this ipl
system.cpu0.kern.ipl_count::31                    193     53.17%    100.00% # number of times we switched to this ipl
system.cpu0.kern.ipl_count::total                 363                       # number of times we switched to this ipl
system.cpu0.kern.ipl_good::0                      168     49.85%     49.85% # number of times we switched to this ipl from a different ipl
system.cpu0.kern.ipl_good::22                       1      0.30%     50.15% # number of times we switched to this ipl from a different ipl
system.cpu0.kern.ipl_good::30                       1      0.30%     50.45% # number of times we switched to this ipl from a different ipl
system.cpu0.kern.ipl_good::31                     167     49.55%    100.00% # number of times we switched to this ipl from a different ipl
system.cpu0.kern.ipl_good::total                  337                       # number of times we switched to this ipl from a different ipl
system.cpu0.kern.ipl_ticks::0               492362500     88.17%     88.17% # number of cycles we spent at this ipl
system.cpu0.kern.ipl_ticks::22                1418500      0.25%     88.43% # number of cycles we spent at this ipl
system.cpu0.kern.ipl_ticks::30                1596000      0.29%     88.71% # number of cycles we spent at this ipl
system.cpu0.kern.ipl_ticks::31               63018000     11.29%    100.00% # number of cycles we spent at this ipl
system.cpu0.kern.ipl_ticks::total           558395000                       # number of cycles we spent at this ipl
system.cpu0.kern.ipl_used::0                        1                       # fraction of swpipl calls that actually changed the ipl
system.cpu0.kern.ipl_used::22                       1                       # fraction of swpipl calls that actually changed the ipl
system.cpu0.kern.ipl_used::30                       1                       # fraction of swpipl calls that actually changed the ipl
system.cpu0.kern.ipl_used::31                0.865285                       # fraction of swpipl calls that actually changed the ipl
system.cpu0.kern.ipl_used::total             0.928375                       # fraction of swpipl calls that actually changed the ipl
system.cpu0.kern.syscall::2                         1     33.33%     33.33% # number of syscalls executed
system.cpu0.kern.syscall::3                         1     33.33%     66.67% # number of syscalls executed
system.cpu0.kern.syscall::19                        1     33.33%    100.00% # number of syscalls executed
system.cpu0.kern.syscall::total                     3                       # number of syscalls executed
system.cpu0.kern.callpal::wripir                    1      0.26%      0.26% # number of callpals executed
system.cpu0.kern.callpal::swpctx                   12      3.08%      3.34% # number of callpals executed
system.cpu0.kern.callpal::tbi                       2      0.51%      3.86% # number of callpals executed
system.cpu0.kern.callpal::swpipl                  342     87.92%     91.77% # number of callpals executed
system.cpu0.kern.callpal::rdps                      2      0.51%     92.29% # number of callpals executed
system.cpu0.kern.callpal::rdusp                     1      0.26%     92.54% # number of callpals executed
system.cpu0.kern.callpal::rti                      19      4.88%     97.43% # number of callpals executed
system.cpu0.kern.callpal::callsys                   9      2.31%     99.74% # number of callpals executed
system.cpu0.kern.callpal::imb                       1      0.26%    100.00% # number of callpals executed
system.cpu0.kern.callpal::total                   389                       # number of callpals executed
system.cpu0.kern.mode_switch::kernel               32                       # number of protection mode switches
system.cpu0.kern.mode_switch::user                 17                       # number of protection mode switches
system.cpu0.kern.mode_switch::idle                  0                       # number of protection mode switches
system.cpu0.kern.mode_good::kernel                 18                      
system.cpu0.kern.mode_good::user                   17                      
system.cpu0.kern.mode_good::idle                    0                      
system.cpu0.kern.mode_switch_good::kernel     0.562500                       # fraction of useful protection mode switches
system.cpu0.kern.mode_switch_good::user             1                       # fraction of useful protection mode switches
system.cpu0.kern.mode_switch_good::idle           nan                       # fraction of useful protection mode switches
system.cpu0.kern.mode_switch_good::total     0.714286                       # fraction of useful protection mode switches
system.cpu0.kern.mode_ticks::kernel         240842500     73.43%     73.43% # number of ticks spent at the given mode
system.cpu0.kern.mode_ticks::user            87131000     26.57%    100.00% # number of ticks spent at the given mode
system.cpu0.kern.mode_ticks::idle                   0      0.00%    100.00% # number of ticks spent at the given mode
system.cpu0.kern.swap_context                      12                       # number of times the context was actually changed
system.cpu0.dcache.tags.replacements             4857                       # number of replacements
system.cpu0.dcache.tags.tagsinuse          504.305315                       # Cycle average of tags in use
system.cpu0.dcache.tags.total_refs              56813                       # Total number of references to valid blocks.
system.cpu0.dcache.tags.sampled_refs             4857                       # Sample count of references to valid blocks.
system.cpu0.dcache.tags.avg_refs            11.697138                       # Average number of references to valid blocks.
system.cpu0.dcache.tags.warmup_cycle                0                       # Cycle when the warmup percentage was hit.
system.cpu0.dcache.tags.occ_blocks::cpu0.data    23.557186                       # Average occupied blocks per requestor
system.cpu0.dcache.tags.occ_blocks::switch_cpus0.data   480.748128                       # Average occupied blocks per requestor
system.cpu0.dcache.tags.occ_percent::cpu0.data     0.046010                       # Average percentage of cache occupancy
system.cpu0.dcache.tags.occ_percent::switch_cpus0.data     0.938961                       # Average percentage of cache occupancy
system.cpu0.dcache.tags.occ_percent::total     0.984971                       # Average percentage of cache occupancy
system.cpu0.dcache.tags.occ_task_id_blocks::1024          499                       # Occupied blocks per task id
system.cpu0.dcache.tags.age_task_id_blocks_1024::2          491                       # Occupied blocks per task id
system.cpu0.dcache.tags.age_task_id_blocks_1024::3            8                       # Occupied blocks per task id
system.cpu0.dcache.tags.occ_task_id_percent::1024     0.974609                       # Percentage of cache occupancy per task id
system.cpu0.dcache.tags.tag_accesses           289340                       # Number of tag accesses
system.cpu0.dcache.tags.data_accesses          289340                       # Number of data accesses
system.cpu0.dcache.ReadReq_hits::switch_cpus0.data        32867                       # number of ReadReq hits
system.cpu0.dcache.ReadReq_hits::total          32867                       # number of ReadReq hits
system.cpu0.dcache.WriteReq_hits::switch_cpus0.data        13614                       # number of WriteReq hits
system.cpu0.dcache.WriteReq_hits::total         13614                       # number of WriteReq hits
system.cpu0.dcache.LoadLockedReq_hits::switch_cpus0.data          530                       # number of LoadLockedReq hits
system.cpu0.dcache.LoadLockedReq_hits::total          530                       # number of LoadLockedReq hits
system.cpu0.dcache.StoreCondReq_hits::switch_cpus0.data          595                       # number of StoreCondReq hits
system.cpu0.dcache.StoreCondReq_hits::total          595                       # number of StoreCondReq hits
system.cpu0.dcache.demand_hits::switch_cpus0.data        46481                       # number of demand (read+write) hits
system.cpu0.dcache.demand_hits::total           46481                       # number of demand (read+write) hits
system.cpu0.dcache.overall_hits::switch_cpus0.data        46481                       # number of overall hits
system.cpu0.dcache.overall_hits::total          46481                       # number of overall hits
system.cpu0.dcache.ReadReq_misses::switch_cpus0.data         8832                       # number of ReadReq misses
system.cpu0.dcache.ReadReq_misses::total         8832                       # number of ReadReq misses
system.cpu0.dcache.WriteReq_misses::switch_cpus0.data        14487                       # number of WriteReq misses
system.cpu0.dcache.WriteReq_misses::total        14487                       # number of WriteReq misses
system.cpu0.dcache.LoadLockedReq_misses::switch_cpus0.data          161                       # number of LoadLockedReq misses
system.cpu0.dcache.LoadLockedReq_misses::total          161                       # number of LoadLockedReq misses
system.cpu0.dcache.StoreCondReq_misses::switch_cpus0.data           24                       # number of StoreCondReq misses
system.cpu0.dcache.StoreCondReq_misses::total           24                       # number of StoreCondReq misses
system.cpu0.dcache.demand_misses::switch_cpus0.data        23319                       # number of demand (read+write) misses
system.cpu0.dcache.demand_misses::total         23319                       # number of demand (read+write) misses
system.cpu0.dcache.overall_misses::switch_cpus0.data        23319                       # number of overall misses
system.cpu0.dcache.overall_misses::total        23319                       # number of overall misses
system.cpu0.dcache.ReadReq_miss_latency::switch_cpus0.data    530232484                       # number of ReadReq miss cycles
system.cpu0.dcache.ReadReq_miss_latency::total    530232484                       # number of ReadReq miss cycles
system.cpu0.dcache.WriteReq_miss_latency::switch_cpus0.data   1086716200                       # number of WriteReq miss cycles
system.cpu0.dcache.WriteReq_miss_latency::total   1086716200                       # number of WriteReq miss cycles
system.cpu0.dcache.LoadLockedReq_miss_latency::switch_cpus0.data     10694750                       # number of LoadLockedReq miss cycles
system.cpu0.dcache.LoadLockedReq_miss_latency::total     10694750                       # number of LoadLockedReq miss cycles
system.cpu0.dcache.StoreCondReq_miss_latency::switch_cpus0.data       195503                       # number of StoreCondReq miss cycles
system.cpu0.dcache.StoreCondReq_miss_latency::total       195503                       # number of StoreCondReq miss cycles
system.cpu0.dcache.demand_miss_latency::switch_cpus0.data   1616948684                       # number of demand (read+write) miss cycles
system.cpu0.dcache.demand_miss_latency::total   1616948684                       # number of demand (read+write) miss cycles
system.cpu0.dcache.overall_miss_latency::switch_cpus0.data   1616948684                       # number of overall miss cycles
system.cpu0.dcache.overall_miss_latency::total   1616948684                       # number of overall miss cycles
system.cpu0.dcache.ReadReq_accesses::switch_cpus0.data        41699                       # number of ReadReq accesses(hits+misses)
system.cpu0.dcache.ReadReq_accesses::total        41699                       # number of ReadReq accesses(hits+misses)
system.cpu0.dcache.WriteReq_accesses::switch_cpus0.data        28101                       # number of WriteReq accesses(hits+misses)
system.cpu0.dcache.WriteReq_accesses::total        28101                       # number of WriteReq accesses(hits+misses)
system.cpu0.dcache.LoadLockedReq_accesses::switch_cpus0.data          691                       # number of LoadLockedReq accesses(hits+misses)
system.cpu0.dcache.LoadLockedReq_accesses::total          691                       # number of LoadLockedReq accesses(hits+misses)
system.cpu0.dcache.StoreCondReq_accesses::switch_cpus0.data          619                       # number of StoreCondReq accesses(hits+misses)
system.cpu0.dcache.StoreCondReq_accesses::total          619                       # number of StoreCondReq accesses(hits+misses)
system.cpu0.dcache.demand_accesses::switch_cpus0.data        69800                       # number of demand (read+write) accesses
system.cpu0.dcache.demand_accesses::total        69800                       # number of demand (read+write) accesses
system.cpu0.dcache.overall_accesses::switch_cpus0.data        69800                       # number of overall (read+write) accesses
system.cpu0.dcache.overall_accesses::total        69800                       # number of overall (read+write) accesses
system.cpu0.dcache.ReadReq_miss_rate::switch_cpus0.data     0.211804                       # miss rate for ReadReq accesses
system.cpu0.dcache.ReadReq_miss_rate::total     0.211804                       # miss rate for ReadReq accesses
system.cpu0.dcache.WriteReq_miss_rate::switch_cpus0.data     0.515533                       # miss rate for WriteReq accesses
system.cpu0.dcache.WriteReq_miss_rate::total     0.515533                       # miss rate for WriteReq accesses
system.cpu0.dcache.LoadLockedReq_miss_rate::switch_cpus0.data     0.232996                       # miss rate for LoadLockedReq accesses
system.cpu0.dcache.LoadLockedReq_miss_rate::total     0.232996                       # miss rate for LoadLockedReq accesses
system.cpu0.dcache.StoreCondReq_miss_rate::switch_cpus0.data     0.038772                       # miss rate for StoreCondReq accesses
system.cpu0.dcache.StoreCondReq_miss_rate::total     0.038772                       # miss rate for StoreCondReq accesses
system.cpu0.dcache.demand_miss_rate::switch_cpus0.data     0.334083                       # miss rate for demand accesses
system.cpu0.dcache.demand_miss_rate::total     0.334083                       # miss rate for demand accesses
system.cpu0.dcache.overall_miss_rate::switch_cpus0.data     0.334083                       # miss rate for overall accesses
system.cpu0.dcache.overall_miss_rate::total     0.334083                       # miss rate for overall accesses
system.cpu0.dcache.ReadReq_avg_miss_latency::switch_cpus0.data 60035.380888                       # average ReadReq miss latency
system.cpu0.dcache.ReadReq_avg_miss_latency::total 60035.380888                       # average ReadReq miss latency
system.cpu0.dcache.WriteReq_avg_miss_latency::switch_cpus0.data 75013.198040                       # average WriteReq miss latency
system.cpu0.dcache.WriteReq_avg_miss_latency::total 75013.198040                       # average WriteReq miss latency
system.cpu0.dcache.LoadLockedReq_avg_miss_latency::switch_cpus0.data 66427.018634                       # average LoadLockedReq miss latency
system.cpu0.dcache.LoadLockedReq_avg_miss_latency::total 66427.018634                       # average LoadLockedReq miss latency
system.cpu0.dcache.StoreCondReq_avg_miss_latency::switch_cpus0.data  8145.958333                       # average StoreCondReq miss latency
system.cpu0.dcache.StoreCondReq_avg_miss_latency::total  8145.958333                       # average StoreCondReq miss latency
system.cpu0.dcache.demand_avg_miss_latency::switch_cpus0.data 69340.395557                       # average overall miss latency
system.cpu0.dcache.demand_avg_miss_latency::total 69340.395557                       # average overall miss latency
system.cpu0.dcache.overall_avg_miss_latency::switch_cpus0.data 69340.395557                       # average overall miss latency
system.cpu0.dcache.overall_avg_miss_latency::total 69340.395557                       # average overall miss latency
system.cpu0.dcache.blocked_cycles::no_mshrs        95330                       # number of cycles access was blocked
system.cpu0.dcache.blocked_cycles::no_targets           19                       # number of cycles access was blocked
system.cpu0.dcache.blocked::no_mshrs             2022                       # number of cycles access was blocked
system.cpu0.dcache.blocked::no_targets              1                       # number of cycles access was blocked
system.cpu0.dcache.avg_blocked_cycles::no_mshrs    47.146390                       # average number of cycles each access was blocked
system.cpu0.dcache.avg_blocked_cycles::no_targets           19                       # average number of cycles each access was blocked
system.cpu0.dcache.fast_writes                      0                       # number of fast writes performed
system.cpu0.dcache.cache_copies                     0                       # number of cache copies performed
system.cpu0.dcache.writebacks::writebacks         2797                       # number of writebacks
system.cpu0.dcache.writebacks::total             2797                       # number of writebacks
system.cpu0.dcache.ReadReq_mshr_hits::switch_cpus0.data         6045                       # number of ReadReq MSHR hits
system.cpu0.dcache.ReadReq_mshr_hits::total         6045                       # number of ReadReq MSHR hits
system.cpu0.dcache.WriteReq_mshr_hits::switch_cpus0.data        12411                       # number of WriteReq MSHR hits
system.cpu0.dcache.WriteReq_mshr_hits::total        12411                       # number of WriteReq MSHR hits
system.cpu0.dcache.LoadLockedReq_mshr_hits::switch_cpus0.data           58                       # number of LoadLockedReq MSHR hits
system.cpu0.dcache.LoadLockedReq_mshr_hits::total           58                       # number of LoadLockedReq MSHR hits
system.cpu0.dcache.demand_mshr_hits::switch_cpus0.data        18456                       # number of demand (read+write) MSHR hits
system.cpu0.dcache.demand_mshr_hits::total        18456                       # number of demand (read+write) MSHR hits
system.cpu0.dcache.overall_mshr_hits::switch_cpus0.data        18456                       # number of overall MSHR hits
system.cpu0.dcache.overall_mshr_hits::total        18456                       # number of overall MSHR hits
system.cpu0.dcache.ReadReq_mshr_misses::switch_cpus0.data         2787                       # number of ReadReq MSHR misses
system.cpu0.dcache.ReadReq_mshr_misses::total         2787                       # number of ReadReq MSHR misses
system.cpu0.dcache.WriteReq_mshr_misses::switch_cpus0.data         2076                       # number of WriteReq MSHR misses
system.cpu0.dcache.WriteReq_mshr_misses::total         2076                       # number of WriteReq MSHR misses
system.cpu0.dcache.LoadLockedReq_mshr_misses::switch_cpus0.data          103                       # number of LoadLockedReq MSHR misses
system.cpu0.dcache.LoadLockedReq_mshr_misses::total          103                       # number of LoadLockedReq MSHR misses
system.cpu0.dcache.StoreCondReq_mshr_misses::switch_cpus0.data           24                       # number of StoreCondReq MSHR misses
system.cpu0.dcache.StoreCondReq_mshr_misses::total           24                       # number of StoreCondReq MSHR misses
system.cpu0.dcache.demand_mshr_misses::switch_cpus0.data         4863                       # number of demand (read+write) MSHR misses
system.cpu0.dcache.demand_mshr_misses::total         4863                       # number of demand (read+write) MSHR misses
system.cpu0.dcache.overall_mshr_misses::switch_cpus0.data         4863                       # number of overall MSHR misses
system.cpu0.dcache.overall_mshr_misses::total         4863                       # number of overall MSHR misses
system.cpu0.dcache.WriteReq_mshr_uncacheable::switch_cpus0.data            3                       # number of WriteReq MSHR uncacheable
system.cpu0.dcache.WriteReq_mshr_uncacheable::total            3                       # number of WriteReq MSHR uncacheable
system.cpu0.dcache.overall_mshr_uncacheable_misses::switch_cpus0.data            3                       # number of overall MSHR uncacheable misses
system.cpu0.dcache.overall_mshr_uncacheable_misses::total            3                       # number of overall MSHR uncacheable misses
system.cpu0.dcache.ReadReq_mshr_miss_latency::switch_cpus0.data    197698014                       # number of ReadReq MSHR miss cycles
system.cpu0.dcache.ReadReq_mshr_miss_latency::total    197698014                       # number of ReadReq MSHR miss cycles
system.cpu0.dcache.WriteReq_mshr_miss_latency::switch_cpus0.data    172618290                       # number of WriteReq MSHR miss cycles
system.cpu0.dcache.WriteReq_mshr_miss_latency::total    172618290                       # number of WriteReq MSHR miss cycles
system.cpu0.dcache.LoadLockedReq_mshr_miss_latency::switch_cpus0.data      6903750                       # number of LoadLockedReq MSHR miss cycles
system.cpu0.dcache.LoadLockedReq_mshr_miss_latency::total      6903750                       # number of LoadLockedReq MSHR miss cycles
system.cpu0.dcache.StoreCondReq_mshr_miss_latency::switch_cpus0.data       159497                       # number of StoreCondReq MSHR miss cycles
system.cpu0.dcache.StoreCondReq_mshr_miss_latency::total       159497                       # number of StoreCondReq MSHR miss cycles
system.cpu0.dcache.demand_mshr_miss_latency::switch_cpus0.data    370316304                       # number of demand (read+write) MSHR miss cycles
system.cpu0.dcache.demand_mshr_miss_latency::total    370316304                       # number of demand (read+write) MSHR miss cycles
system.cpu0.dcache.overall_mshr_miss_latency::switch_cpus0.data    370316304                       # number of overall MSHR miss cycles
system.cpu0.dcache.overall_mshr_miss_latency::total    370316304                       # number of overall MSHR miss cycles
system.cpu0.dcache.WriteReq_mshr_uncacheable_latency::switch_cpus0.data       670500                       # number of WriteReq MSHR uncacheable cycles
system.cpu0.dcache.WriteReq_mshr_uncacheable_latency::total       670500                       # number of WriteReq MSHR uncacheable cycles
system.cpu0.dcache.overall_mshr_uncacheable_latency::switch_cpus0.data       670500                       # number of overall MSHR uncacheable cycles
system.cpu0.dcache.overall_mshr_uncacheable_latency::total       670500                       # number of overall MSHR uncacheable cycles
system.cpu0.dcache.ReadReq_mshr_miss_rate::switch_cpus0.data     0.066836                       # mshr miss rate for ReadReq accesses
system.cpu0.dcache.ReadReq_mshr_miss_rate::total     0.066836                       # mshr miss rate for ReadReq accesses
system.cpu0.dcache.WriteReq_mshr_miss_rate::switch_cpus0.data     0.073876                       # mshr miss rate for WriteReq accesses
system.cpu0.dcache.WriteReq_mshr_miss_rate::total     0.073876                       # mshr miss rate for WriteReq accesses
system.cpu0.dcache.LoadLockedReq_mshr_miss_rate::switch_cpus0.data     0.149059                       # mshr miss rate for LoadLockedReq accesses
system.cpu0.dcache.LoadLockedReq_mshr_miss_rate::total     0.149059                       # mshr miss rate for LoadLockedReq accesses
system.cpu0.dcache.StoreCondReq_mshr_miss_rate::switch_cpus0.data     0.038772                       # mshr miss rate for StoreCondReq accesses
system.cpu0.dcache.StoreCondReq_mshr_miss_rate::total     0.038772                       # mshr miss rate for StoreCondReq accesses
system.cpu0.dcache.demand_mshr_miss_rate::switch_cpus0.data     0.069670                       # mshr miss rate for demand accesses
system.cpu0.dcache.demand_mshr_miss_rate::total     0.069670                       # mshr miss rate for demand accesses
system.cpu0.dcache.overall_mshr_miss_rate::switch_cpus0.data     0.069670                       # mshr miss rate for overall accesses
system.cpu0.dcache.overall_mshr_miss_rate::total     0.069670                       # mshr miss rate for overall accesses
system.cpu0.dcache.ReadReq_avg_mshr_miss_latency::switch_cpus0.data 70935.778256                       # average ReadReq mshr miss latency
system.cpu0.dcache.ReadReq_avg_mshr_miss_latency::total 70935.778256                       # average ReadReq mshr miss latency
system.cpu0.dcache.WriteReq_avg_mshr_miss_latency::switch_cpus0.data 83149.465318                       # average WriteReq mshr miss latency
system.cpu0.dcache.WriteReq_avg_mshr_miss_latency::total 83149.465318                       # average WriteReq mshr miss latency
system.cpu0.dcache.LoadLockedReq_avg_mshr_miss_latency::switch_cpus0.data 67026.699029                       # average LoadLockedReq mshr miss latency
system.cpu0.dcache.LoadLockedReq_avg_mshr_miss_latency::total 67026.699029                       # average LoadLockedReq mshr miss latency
system.cpu0.dcache.StoreCondReq_avg_mshr_miss_latency::switch_cpus0.data  6645.708333                       # average StoreCondReq mshr miss latency
system.cpu0.dcache.StoreCondReq_avg_mshr_miss_latency::total  6645.708333                       # average StoreCondReq mshr miss latency
system.cpu0.dcache.demand_avg_mshr_miss_latency::switch_cpus0.data 76149.764343                       # average overall mshr miss latency
system.cpu0.dcache.demand_avg_mshr_miss_latency::total 76149.764343                       # average overall mshr miss latency
system.cpu0.dcache.overall_avg_mshr_miss_latency::switch_cpus0.data 76149.764343                       # average overall mshr miss latency
system.cpu0.dcache.overall_avg_mshr_miss_latency::total 76149.764343                       # average overall mshr miss latency
system.cpu0.dcache.WriteReq_avg_mshr_uncacheable_latency::switch_cpus0.data       223500                       # average WriteReq mshr uncacheable latency
system.cpu0.dcache.WriteReq_avg_mshr_uncacheable_latency::total       223500                       # average WriteReq mshr uncacheable latency
system.cpu0.dcache.overall_avg_mshr_uncacheable_latency::switch_cpus0.data       223500                       # average overall mshr uncacheable latency
system.cpu0.dcache.overall_avg_mshr_uncacheable_latency::total       223500                       # average overall mshr uncacheable latency
system.cpu0.dcache.no_allocate_misses               0                       # Number of misses that were no-allocate
system.cpu0.icache.tags.replacements             3518                       # number of replacements
system.cpu0.icache.tags.tagsinuse          511.998942                       # Cycle average of tags in use
system.cpu0.icache.tags.total_refs             261039                       # Total number of references to valid blocks.
system.cpu0.icache.tags.sampled_refs             3518                       # Sample count of references to valid blocks.
system.cpu0.icache.tags.avg_refs            74.200966                       # Average number of references to valid blocks.
system.cpu0.icache.tags.warmup_cycle                0                       # Cycle when the warmup percentage was hit.
system.cpu0.icache.tags.occ_blocks::cpu0.inst    19.956216                       # Average occupied blocks per requestor
system.cpu0.icache.tags.occ_blocks::switch_cpus0.inst   492.042726                       # Average occupied blocks per requestor
system.cpu0.icache.tags.occ_percent::cpu0.inst     0.038977                       # Average percentage of cache occupancy
system.cpu0.icache.tags.occ_percent::switch_cpus0.inst     0.961021                       # Average percentage of cache occupancy
system.cpu0.icache.tags.occ_percent::total     0.999998                       # Average percentage of cache occupancy
system.cpu0.icache.tags.occ_task_id_blocks::1024          512                       # Occupied blocks per task id
system.cpu0.icache.tags.age_task_id_blocks_1024::2          464                       # Occupied blocks per task id
system.cpu0.icache.tags.age_task_id_blocks_1024::3           48                       # Occupied blocks per task id
system.cpu0.icache.tags.occ_task_id_percent::1024            1                       # Percentage of cache occupancy per task id
system.cpu0.icache.tags.tag_accesses            86551                       # Number of tag accesses
system.cpu0.icache.tags.data_accesses           86551                       # Number of data accesses
system.cpu0.icache.ReadReq_hits::switch_cpus0.inst        37204                       # number of ReadReq hits
system.cpu0.icache.ReadReq_hits::total          37204                       # number of ReadReq hits
system.cpu0.icache.demand_hits::switch_cpus0.inst        37204                       # number of demand (read+write) hits
system.cpu0.icache.demand_hits::total           37204                       # number of demand (read+write) hits
system.cpu0.icache.overall_hits::switch_cpus0.inst        37204                       # number of overall hits
system.cpu0.icache.overall_hits::total          37204                       # number of overall hits
system.cpu0.icache.ReadReq_misses::switch_cpus0.inst         4312                       # number of ReadReq misses
system.cpu0.icache.ReadReq_misses::total         4312                       # number of ReadReq misses
system.cpu0.icache.demand_misses::switch_cpus0.inst         4312                       # number of demand (read+write) misses
system.cpu0.icache.demand_misses::total          4312                       # number of demand (read+write) misses
system.cpu0.icache.overall_misses::switch_cpus0.inst         4312                       # number of overall misses
system.cpu0.icache.overall_misses::total         4312                       # number of overall misses
system.cpu0.icache.ReadReq_miss_latency::switch_cpus0.inst    311158885                       # number of ReadReq miss cycles
system.cpu0.icache.ReadReq_miss_latency::total    311158885                       # number of ReadReq miss cycles
system.cpu0.icache.demand_miss_latency::switch_cpus0.inst    311158885                       # number of demand (read+write) miss cycles
system.cpu0.icache.demand_miss_latency::total    311158885                       # number of demand (read+write) miss cycles
system.cpu0.icache.overall_miss_latency::switch_cpus0.inst    311158885                       # number of overall miss cycles
system.cpu0.icache.overall_miss_latency::total    311158885                       # number of overall miss cycles
system.cpu0.icache.ReadReq_accesses::switch_cpus0.inst        41516                       # number of ReadReq accesses(hits+misses)
system.cpu0.icache.ReadReq_accesses::total        41516                       # number of ReadReq accesses(hits+misses)
[...]
system.switch_cpus3.int_regfile_writes         124818                       # number of integer regfile writes
system.switch_cpus3.fp_regfile_reads              154                       # number of floating regfile reads
system.switch_cpus3.fp_regfile_writes             155                       # number of floating regfile writes
system.switch_cpus3.misc_regfile_reads          26612                       # number of misc regfile reads
system.switch_cpus3.misc_regfile_writes          5037                       # number of misc regfile writes
system.tol2bus.trans_dist::ReadReq              53816                       # Transaction distribution
system.tol2bus.trans_dist::ReadResp             53815                       # Transaction distribution
system.tol2bus.trans_dist::WriteReq               133                       # Transaction distribution
system.tol2bus.trans_dist::WriteResp              133                       # Transaction distribution
system.tol2bus.trans_dist::Writeback            36162                       # Transaction distribution
system.tol2bus.trans_dist::UpgradeReq             505                       # Transaction distribution
system.tol2bus.trans_dist::SCUpgradeReq           129                       # Transaction distribution
system.tol2bus.trans_dist::UpgradeResp            634                       # Transaction distribution
system.tol2bus.trans_dist::SCUpgradeFailReq            1                       # Transaction distribution
system.tol2bus.trans_dist::UpgradeFailResp            1                       # Transaction distribution
system.tol2bus.trans_dist::ReadExReq            18782                       # Transaction distribution
system.tol2bus.trans_dist::ReadExResp           18782                       # Transaction distribution
system.tol2bus.trans_dist::BadAddressError            1                       # Transaction distribution
system.tol2bus.pkt_count_system.cpu0.icache.mem_side::system.l2.cpu_side        13012                       # Packet count per connected master and slave (bytes)
system.tol2bus.pkt_count_system.cpu0.dcache.mem_side::system.l2.cpu_side        33999                       # Packet count per connected master and slave (bytes)
system.tol2bus.pkt_count_system.cpu1.icache.mem_side::system.l2.cpu_side          312                       # Packet count per connected master and slave (bytes)
system.tol2bus.pkt_count_system.cpu1.dcache.mem_side::system.l2.cpu_side          146                       # Packet count per connected master and slave (bytes)
system.tol2bus.pkt_count_system.cpu2.icache.mem_side::system.l2.cpu_side        22619                       # Packet count per connected master and slave (bytes)
system.tol2bus.pkt_count_system.cpu2.dcache.mem_side::system.l2.cpu_side       100832                       # Packet count per connected master and slave (bytes)
system.tol2bus.pkt_count_system.cpu3.icache.mem_side::system.l2.cpu_side         4288                       # Packet count per connected master and slave (bytes)
system.tol2bus.pkt_count_system.cpu3.dcache.mem_side::system.l2.cpu_side         7056                       # Packet count per connected master and slave (bytes)
system.tol2bus.pkt_count::total                182264                       # Packet count per connected master and slave (bytes)
system.tol2bus.pkt_size_system.cpu0.icache.mem_side::system.l2.cpu_side       416320                       # Cumulative packet size per connected master and slave (bytes)
system.tol2bus.pkt_size_system.cpu0.dcache.mem_side::system.l2.cpu_side      1304751                       # Cumulative packet size per connected master and slave (bytes)
system.tol2bus.pkt_size_system.cpu1.icache.mem_side::system.l2.cpu_side         9984                       # Cumulative packet size per connected master and slave (bytes)
system.tol2bus.pkt_size_system.cpu1.dcache.mem_side::system.l2.cpu_side         3432                       # Cumulative packet size per connected master and slave (bytes)
system.tol2bus.pkt_size_system.cpu2.icache.mem_side::system.l2.cpu_side       723712                       # Cumulative packet size per connected master and slave (bytes)
system.tol2bus.pkt_size_system.cpu2.dcache.mem_side::system.l2.cpu_side      4067315                       # Cumulative packet size per connected master and slave (bytes)
system.tol2bus.pkt_size_system.cpu3.icache.mem_side::system.l2.cpu_side       137216                       # Cumulative packet size per connected master and slave (bytes)
system.tol2bus.pkt_size_system.cpu3.dcache.mem_side::system.l2.cpu_side       254136                       # Cumulative packet size per connected master and slave (bytes)
system.tol2bus.pkt_size::total                6916866                       # Cumulative packet size per connected master and slave (bytes)
system.tol2bus.snoops                             630                       # Total snoops (count)
system.tol2bus.snoop_fanout::samples           109528                       # Request fanout histogram
system.tol2bus.snoop_fanout::mean                   7                       # Request fanout histogram
system.tol2bus.snoop_fanout::stdev                  0                       # Request fanout histogram
system.tol2bus.snoop_fanout::underflows             0      0.00%      0.00% # Request fanout histogram
system.tol2bus.snoop_fanout::0                      0      0.00%      0.00% # Request fanout histogram
system.tol2bus.snoop_fanout::1                      0      0.00%      0.00% # Request fanout histogram
system.tol2bus.snoop_fanout::2                      0      0.00%      0.00% # Request fanout histogram
system.tol2bus.snoop_fanout::3                      0      0.00%      0.00% # Request fanout histogram
system.tol2bus.snoop_fanout::4                      0      0.00%      0.00% # Request fanout histogram
system.tol2bus.snoop_fanout::5                      0      0.00%      0.00% # Request fanout histogram
system.tol2bus.snoop_fanout::6                      0      0.00%      0.00% # Request fanout histogram
system.tol2bus.snoop_fanout::7                 109528    100.00%    100.00% # Request fanout histogram
system.tol2bus.snoop_fanout::8                      0      0.00%    100.00% # Request fanout histogram
system.tol2bus.snoop_fanout::overflows              0      0.00%    100.00% # Request fanout histogram
system.tol2bus.snoop_fanout::min_value              7                       # Request fanout histogram
system.tol2bus.snoop_fanout::max_value              7                       # Request fanout histogram
system.tol2bus.snoop_fanout::total             109528                       # Request fanout histogram
system.tol2bus.reqLayer0.occupancy           90992999                       # Layer occupancy (ticks)
system.tol2bus.reqLayer0.utilization              2.6                       # Layer utilization (%)
system.tol2bus.respLayer0.occupancy          10588915                       # Layer occupancy (ticks)
system.tol2bus.respLayer0.utilization             0.3                       # Layer utilization (%)
system.tol2bus.respLayer1.occupancy          21091756                       # Layer occupancy (ticks)
system.tol2bus.respLayer1.utilization             0.6                       # Layer utilization (%)
system.tol2bus.respLayer2.occupancy            261195                       # Layer occupancy (ticks)
system.tol2bus.respLayer2.utilization             0.0                       # Layer utilization (%)
system.tol2bus.respLayer3.occupancy            106998                       # Layer occupancy (ticks)
system.tol2bus.respLayer3.utilization             0.0                       # Layer utilization (%)
system.tol2bus.respLayer4.occupancy          18604881                       # Layer occupancy (ticks)
system.tol2bus.respLayer4.utilization             0.5                       # Layer utilization (%)
system.tol2bus.respLayer5.occupancy          59216255                       # Layer occupancy (ticks)
system.tol2bus.respLayer5.utilization             1.7                       # Layer utilization (%)
system.tol2bus.respLayer6.occupancy           3463204                       # Layer occupancy (ticks)
system.tol2bus.respLayer6.utilization             0.1                       # Layer utilization (%)
system.tol2bus.respLayer7.occupancy           4657533                       # Layer occupancy (ticks)
system.tol2bus.respLayer7.utilization             0.1                       # Layer utilization (%)
system.tsunami.ethernet.descDMAReads                0                       # Number of descriptors the device read w/ DMA
system.tsunami.ethernet.descDMAWrites               0                       # Number of descriptors the device wrote w/ DMA
system.tsunami.ethernet.descDmaReadBytes            0                       # number of descriptor bytes read w/ DMA
system.tsunami.ethernet.descDmaWriteBytes            0                       # number of descriptor bytes write w/ DMA
system.tsunami.ethernet.postedSwi                   0                       # number of software interrupts posted to CPU
system.tsunami.ethernet.coalescedSwi              nan                       # average number of Swi's coalesced into each post
system.tsunami.ethernet.totalSwi                    0                       # total number of Swi written to ISR
system.tsunami.ethernet.postedRxIdle                0                       # number of rxIdle interrupts posted to CPU
system.tsunami.ethernet.coalescedRxIdle           nan                       # average number of RxIdle's coalesced into each post
system.tsunami.ethernet.totalRxIdle                 0                       # total number of RxIdle written to ISR
system.tsunami.ethernet.postedRxOk                  0                       # number of RxOk interrupts posted to CPU
system.tsunami.ethernet.coalescedRxOk             nan                       # average number of RxOk's coalesced into each post
system.tsunami.ethernet.totalRxOk                   0                       # total number of RxOk written to ISR
system.tsunami.ethernet.postedRxDesc                0                       # number of RxDesc interrupts posted to CPU
system.tsunami.ethernet.coalescedRxDesc           nan                       # average number of RxDesc's coalesced into each post
system.tsunami.ethernet.totalRxDesc                 0                       # total number of RxDesc written to ISR
system.tsunami.ethernet.postedTxOk                  0                       # number of TxOk interrupts posted to CPU
system.tsunami.ethernet.coalescedTxOk             nan                       # average number of TxOk's coalesced into each post
system.tsunami.ethernet.totalTxOk                   0                       # total number of TxOk written to ISR
system.tsunami.ethernet.postedTxIdle                0                       # number of TxIdle interrupts posted to CPU
system.tsunami.ethernet.coalescedTxIdle           nan                       # average number of TxIdle's coalesced into each post
system.tsunami.ethernet.totalTxIdle                 0                       # total number of TxIdle written to ISR
system.tsunami.ethernet.postedTxDesc                0                       # number of TxDesc interrupts posted to CPU
system.tsunami.ethernet.coalescedTxDesc           nan                       # average number of TxDesc's coalesced into each post
system.tsunami.ethernet.totalTxDesc                 0                       # total number of TxDesc written to ISR
system.tsunami.ethernet.postedRxOrn                 0                       # number of RxOrn posted to CPU
system.tsunami.ethernet.coalescedRxOrn            nan                       # average number of RxOrn's coalesced into each post
system.tsunami.ethernet.totalRxOrn                  0                       # total number of RxOrn written to ISR
system.tsunami.ethernet.coalescedTotal            nan                       # average number of interrupts coalesced into each post
system.tsunami.ethernet.postedInterrupts            0                       # number of posts to CPU
system.tsunami.ethernet.droppedPackets              0                       # number of packets dropped
system.switch_cpus0.kern.inst.arm                   0                       # number of arm instructions executed
system.switch_cpus0.kern.inst.quiesce               0                       # number of quiesce instructions executed
system.switch_cpus0.kern.inst.hwrei                 0                       # number of hwrei instructions executed
system.switch_cpus0.kern.mode_switch::kernel            0                       # number of protection mode switches
system.switch_cpus0.kern.mode_switch::user            0                       # number of protection mode switches
system.switch_cpus0.kern.mode_switch::idle            0                       # number of protection mode switches
system.switch_cpus0.kern.mode_good::kernel            0                      
system.switch_cpus0.kern.mode_good::user            0                      
system.switch_cpus0.kern.mode_good::idle            0                      
system.switch_cpus0.kern.mode_switch_good::kernel          nan                       # fraction of useful protection mode switches
system.switch_cpus0.kern.mode_switch_good::user          nan                       # fraction of useful protection mode switches
system.switch_cpus0.kern.mode_switch_good::idle          nan                       # fraction of useful protection mode switches
system.switch_cpus0.kern.mode_switch_good::total          nan                       # fraction of useful protection mode switches
system.switch_cpus0.kern.mode_ticks::kernel            0                       # number of ticks spent at the given mode
system.switch_cpus0.kern.mode_ticks::user            0                       # number of ticks spent at the given mode
system.switch_cpus0.kern.mode_ticks::idle            0                       # number of ticks spent at the given mode
system.switch_cpus0.kern.swap_context               0                       # number of times the context was actually changed
system.switch_cpus1.kern.inst.arm                   0                       # number of arm instructions executed
system.switch_cpus1.kern.inst.quiesce               0                       # number of quiesce instructions executed
system.switch_cpus1.kern.inst.hwrei                 0                       # number of hwrei instructions executed
system.switch_cpus1.kern.mode_switch::kernel            0                       # number of protection mode switches
system.switch_cpus1.kern.mode_switch::user            0                       # number of protection mode switches
system.switch_cpus1.kern.mode_switch::idle            0                       # number of protection mode switches
system.switch_cpus1.kern.mode_good::kernel            0                      
system.switch_cpus1.kern.mode_good::user            0                      
system.switch_cpus1.kern.mode_good::idle            0                      
system.switch_cpus1.kern.mode_switch_good::kernel          nan                       # fraction of useful protection mode switches
system.switch_cpus1.kern.mode_switch_good::user          nan                       # fraction of useful protection mode switches
system.switch_cpus1.kern.mode_switch_good::idle          nan                       # fraction of useful protection mode switches
system.switch_cpus1.kern.mode_switch_good::total          nan                       # fraction of useful protection mode switches
system.switch_cpus1.kern.mode_ticks::kernel            0                       # number of ticks spent at the given mode
system.switch_cpus1.kern.mode_ticks::user            0                       # number of ticks spent at the given mode
system.switch_cpus1.kern.mode_ticks::idle            0                       # number of ticks spent at the given mode
system.switch_cpus1.kern.swap_context               0                       # number of times the context was actually changed
system.switch_cpus2.kern.inst.arm                   0                       # number of arm instructions executed
system.switch_cpus2.kern.inst.quiesce               0                       # number of quiesce instructions executed
system.switch_cpus2.kern.inst.hwrei                 0                       # number of hwrei instructions executed
system.switch_cpus2.kern.mode_switch::kernel            0                       # number of protection mode switches
system.switch_cpus2.kern.mode_switch::user            0                       # number of protection mode switches
system.switch_cpus2.kern.mode_switch::idle            0                       # number of protection mode switches
system.switch_cpus2.kern.mode_good::kernel            0                      
system.switch_cpus2.kern.mode_good::user            0                      
system.switch_cpus2.kern.mode_good::idle            0                      
system.switch_cpus2.kern.mode_switch_good::kernel          nan                       # fraction of useful protection mode switches
system.switch_cpus2.kern.mode_switch_good::user          nan                       # fraction of useful protection mode switches
system.switch_cpus2.kern.mode_switch_good::idle          nan                       # fraction of useful protection mode switches
system.switch_cpus2.kern.mode_switch_good::total          nan                       # fraction of useful protection mode switches
system.switch_cpus2.kern.mode_ticks::kernel            0                       # number of ticks spent at the given mode
system.switch_cpus2.kern.mode_ticks::user            0                       # number of ticks spent at the given mode
system.switch_cpus2.kern.mode_ticks::idle            0                       # number of ticks spent at the given mode
system.switch_cpus2.kern.swap_context               0                       # number of times the context was actually changed
system.switch_cpus3.kern.inst.arm                   0                       # number of arm instructions executed
system.switch_cpus3.kern.inst.quiesce               0                       # number of quiesce instructions executed
system.switch_cpus3.kern.inst.hwrei                 0                       # number of hwrei instructions executed
system.switch_cpus3.kern.mode_switch::kernel            0                       # number of protection mode switches
system.switch_cpus3.kern.mode_switch::user            0                       # number of protection mode switches
system.switch_cpus3.kern.mode_switch::idle            0                       # number of protection mode switches
system.switch_cpus3.kern.mode_good::kernel            0                      
system.switch_cpus3.kern.mode_good::user            0                      
system.switch_cpus3.kern.mode_good::idle            0                      
system.switch_cpus3.kern.mode_switch_good::kernel          nan                       # fraction of useful protection mode switches
system.switch_cpus3.kern.mode_switch_good::user          nan                       # fraction of useful protection mode switches
system.switch_cpus3.kern.mode_switch_good::idle          nan                       # fraction of useful protection mode switches
system.switch_cpus3.kern.mode_switch_good::total          nan                       # fraction of useful protection mode switches
system.switch_cpus3.kern.mode_ticks::kernel            0                       # number of ticks spent at the given mode
system.switch_cpus3.kern.mode_ticks::user            0                       # number of ticks spent at the given mode
system.switch_cpus3.kern.mode_ticks::idle            0                       # number of ticks spent at the given mode
system.switch_cpus3.kern.swap_context               0                       # number of times the context was actually changed

---------- End Simulation Statistics   ----------
