
---------- Begin Simulation Statistics ----------
sim_seconds                                  0.000743                       # Number of seconds simulated
sim_ticks                                   743268000                       # Number of ticks simulated
final_tick                               2262021251000                       # Number of ticks from beginning of simulation (restored from checkpoints and never reset)
sim_freq                                 1000000000000                       # Frequency of simulated ticks
host_inst_rate                               40153076                       # Simulator instruction rate (inst/s)
host_op_rate                                 40152973                       # Simulator op (including micro ops) rate (op/s)
host_tick_rate                              253061590                       # Simulator tick rate (ticks/s)
host_mem_usage                                 757616                       # Number of bytes of host memory used
host_seconds                                     2.94                       # Real time elapsed on the host
sim_insts                                   117933162                       # Number of instructions simulated
sim_ops                                     117933162                       # Number of ops (including micro ops) simulated
system.voltage_domain.voltage                       1                       # Voltage in Volts
system.clk_domain.clock                          1000                       # Clock period in ticks
system.mem_ctrls.bytes_read::switch_cpus0.inst        74240                       # Number of bytes read from this memory
system.mem_ctrls.bytes_read::switch_cpus0.data        61504                       # Number of bytes read from this memory
system.mem_ctrls.bytes_read::switch_cpus1.inst        15360                       # Number of bytes read from this memory
system.mem_ctrls.bytes_read::switch_cpus1.data        50048                       # Number of bytes read from this memory
system.mem_ctrls.bytes_read::switch_cpus2.inst         1856                       # Number of bytes read from this memory
system.mem_ctrls.bytes_read::switch_cpus2.data         1280                       # Number of bytes read from this memory
system.mem_ctrls.bytes_read::switch_cpus3.inst        54016                       # Number of bytes read from this memory
system.mem_ctrls.bytes_read::switch_cpus3.data       452160                       # Number of bytes read from this memory
system.mem_ctrls.bytes_read::total             710464                       # Number of bytes read from this memory
system.mem_ctrls.bytes_inst_read::switch_cpus0.inst        74240                       # Number of instructions bytes read from this memory
system.mem_ctrls.bytes_inst_read::switch_cpus1.inst        15360                       # Number of instructions bytes read from this memory
system.mem_ctrls.bytes_inst_read::switch_cpus2.inst         1856                       # Number of instructions bytes read from this memory
system.mem_ctrls.bytes_inst_read::switch_cpus3.inst        54016                       # Number of instructions bytes read from this memory
system.mem_ctrls.bytes_inst_read::total        145472                       # Number of instructions bytes read from this memory
system.mem_ctrls.bytes_written::writebacks       408320                       # Number of bytes written to this memory
system.mem_ctrls.bytes_written::total          408320                       # Number of bytes written to this memory
system.mem_ctrls.num_reads::switch_cpus0.inst         1160                       # Number of read requests responded to by this memory
system.mem_ctrls.num_reads::switch_cpus0.data          961                       # Number of read requests responded to by this memory
system.mem_ctrls.num_reads::switch_cpus1.inst          240                       # Number of read requests responded to by this memory
system.mem_ctrls.num_reads::switch_cpus1.data          782                       # Number of read requests responded to by this memory
system.mem_ctrls.num_reads::switch_cpus2.inst           29                       # Number of read requests responded to by this memory
system.mem_ctrls.num_reads::switch_cpus2.data           20                       # Number of read requests responded to by this memory
system.mem_ctrls.num_reads::switch_cpus3.inst          844                       # Number of read requests responded to by this memory
system.mem_ctrls.num_reads::switch_cpus3.data         7065                       # Number of read requests responded to by this memory
system.mem_ctrls.num_reads::total               11101                       # Number of read requests responded to by this memory
system.mem_ctrls.num_writes::writebacks          6380                       # Number of write requests responded to by this memory
system.mem_ctrls.num_writes::total               6380                       # Number of write requests responded to by this memory
system.mem_ctrls.bw_read::switch_cpus0.inst     99883218                       # Total read bandwidth from this memory (bytes/s)
system.mem_ctrls.bw_read::switch_cpus0.data     82748080                       # Total read bandwidth from this memory (bytes/s)
system.mem_ctrls.bw_read::switch_cpus1.inst     20665493                       # Total read bandwidth from this memory (bytes/s)
system.mem_ctrls.bw_read::switch_cpus1.data     67335066                       # Total read bandwidth from this memory (bytes/s)
system.mem_ctrls.bw_read::switch_cpus2.inst      2497080                       # Total read bandwidth from this memory (bytes/s)
system.mem_ctrls.bw_read::switch_cpus2.data      1722124                       # Total read bandwidth from this memory (bytes/s)
system.mem_ctrls.bw_read::switch_cpus3.inst     72673652                       # Total read bandwidth from this memory (bytes/s)
system.mem_ctrls.bw_read::switch_cpus3.data    608340464                       # Total read bandwidth from this memory (bytes/s)
system.mem_ctrls.bw_read::total             955865179                       # Total read bandwidth from this memory (bytes/s)
system.mem_ctrls.bw_inst_read::switch_cpus0.inst     99883218                       # Instruction read bandwidth from this memory (bytes/s)
system.mem_ctrls.bw_inst_read::switch_cpus1.inst     20665493                       # Instruction read bandwidth from this memory (bytes/s)
system.mem_ctrls.bw_inst_read::switch_cpus2.inst      2497080                       # Instruction read bandwidth from this memory (bytes/s)
system.mem_ctrls.bw_inst_read::switch_cpus3.inst     72673652                       # Instruction read bandwidth from this memory (bytes/s)
system.mem_ctrls.bw_inst_read::total        195719444                       # Instruction read bandwidth from this memory (bytes/s)
system.mem_ctrls.bw_write::writebacks       549357701                       # Write bandwidth from this memory (bytes/s)
system.mem_ctrls.bw_write::total            549357701                       # Write bandwidth from this memory (bytes/s)
system.mem_ctrls.bw_total::writebacks       549357701                       # Total bandwidth to/from this memory (bytes/s)
system.mem_ctrls.bw_total::switch_cpus0.inst     99883218                       # Total bandwidth to/from this memory (bytes/s)
system.mem_ctrls.bw_total::switch_cpus0.data     82748080                       # Total bandwidth to/from this memory (bytes/s)
system.mem_ctrls.bw_total::switch_cpus1.inst     20665493                       # Total bandwidth to/from this memory (bytes/s)
system.mem_ctrls.bw_total::switch_cpus1.data     67335066                       # Total bandwidth to/from this memory (bytes/s)
system.mem_ctrls.bw_total::switch_cpus2.inst      2497080                       # Total bandwidth to/from this memory (bytes/s)
system.mem_ctrls.bw_total::switch_cpus2.data      1722124                       # Total bandwidth to/from this memory (bytes/s)
system.mem_ctrls.bw_total::switch_cpus3.inst     72673652                       # Total bandwidth to/from this memory (bytes/s)
system.mem_ctrls.bw_total::switch_cpus3.data    608340464                       # Total bandwidth to/from this memory (bytes/s)
system.mem_ctrls.bw_total::total           1505222881                       # Total bandwidth to/from this memory (bytes/s)
system.mem_ctrls.readReqs                       11101                       # Number of read requests accepted
system.mem_ctrls.writeReqs                       6380                       # Number of write requests accepted
system.mem_ctrls.readBursts                     11101                       # Number of DRAM read bursts, including those serviced by the write queue
system.mem_ctrls.writeBursts                     6380                       # Number of DRAM write bursts, including those merged in the write queue
system.mem_ctrls.bytesReadDRAM                 709376                       # Total number of bytes read from DRAM
system.mem_ctrls.bytesReadWrQ                    1088                       # Total number of bytes read from write queue
system.mem_ctrls.bytesWritten                  407168                       # Total number of bytes written to DRAM
system.mem_ctrls.bytesReadSys                  710464                       # Total read bytes from the system interface side
system.mem_ctrls.bytesWrittenSys               408320                       # Total written bytes from the system interface side
system.mem_ctrls.servicedByWrQ                     17                       # Number of DRAM read bursts serviced by the write queue
system.mem_ctrls.mergedWrBursts                     0                       # Number of DRAM write bursts merged with an existing one
system.mem_ctrls.neitherReadNorWriteReqs           79                       # Number of requests that are neither read nor write
system.mem_ctrls.perBankRdBursts::0               484                       # Per bank write bursts
system.mem_ctrls.perBankRdBursts::1               781                       # Per bank write bursts
system.mem_ctrls.perBankRdBursts::2               495                       # Per bank write bursts
system.mem_ctrls.perBankRdBursts::3               399                       # Per bank write bursts
system.mem_ctrls.perBankRdBursts::4               394                       # Per bank write bursts
system.mem_ctrls.perBankRdBursts::5               812                       # Per bank write bursts
system.mem_ctrls.perBankRdBursts::6               741                       # Per bank write bursts
system.mem_ctrls.perBankRdBursts::7               753                       # Per bank write bursts
system.mem_ctrls.perBankRdBursts::8               496                       # Per bank write bursts
system.mem_ctrls.perBankRdBursts::9              1103                       # Per bank write bursts
system.mem_ctrls.perBankRdBursts::10              375                       # Per bank write bursts
system.mem_ctrls.perBankRdBursts::11              726                       # Per bank write bursts
system.mem_ctrls.perBankRdBursts::12              950                       # Per bank write bursts
system.mem_ctrls.perBankRdBursts::13              873                       # Per bank write bursts
system.mem_ctrls.perBankRdBursts::14              946                       # Per bank write bursts
system.mem_ctrls.perBankRdBursts::15              756                       # Per bank write bursts
system.mem_ctrls.perBankWrBursts::0               336                       # Per bank write bursts
system.mem_ctrls.perBankWrBursts::1               529                       # Per bank write bursts
system.mem_ctrls.perBankWrBursts::2                35                       # Per bank write bursts
system.mem_ctrls.perBankWrBursts::3               467                       # Per bank write bursts
system.mem_ctrls.perBankWrBursts::4               291                       # Per bank write bursts
system.mem_ctrls.perBankWrBursts::5               402                       # Per bank write bursts
system.mem_ctrls.perBankWrBursts::6               495                       # Per bank write bursts
system.mem_ctrls.perBankWrBursts::7               658                       # Per bank write bursts
system.mem_ctrls.perBankWrBursts::8               259                       # Per bank write bursts
system.mem_ctrls.perBankWrBursts::9               453                       # Per bank write bursts
system.mem_ctrls.perBankWrBursts::10              406                       # Per bank write bursts
system.mem_ctrls.perBankWrBursts::11              207                       # Per bank write bursts
system.mem_ctrls.perBankWrBursts::12              417                       # Per bank write bursts
system.mem_ctrls.perBankWrBursts::13              498                       # Per bank write bursts
system.mem_ctrls.perBankWrBursts::14              566                       # Per bank write bursts
system.mem_ctrls.perBankWrBursts::15              343                       # Per bank write bursts
system.mem_ctrls.numRdRetry                         0                       # Number of times read queue was full causing retry
system.mem_ctrls.numWrRetry                         0                       # Number of times write queue was full causing retry
system.mem_ctrls.totGap                     740960000                       # Total gap between requests
system.mem_ctrls.readPktSize::0                     0                       # Read request sizes (log2)
system.mem_ctrls.readPktSize::1                     0                       # Read request sizes (log2)
system.mem_ctrls.readPktSize::2                     0                       # Read request sizes (log2)
system.mem_ctrls.readPktSize::3                     0                       # Read request sizes (log2)
system.mem_ctrls.readPktSize::4                     0                       # Read request sizes (log2)
system.mem_ctrls.readPktSize::5                     0                       # Read request sizes (log2)
system.mem_ctrls.readPktSize::6                 11101                       # Read request sizes (log2)
system.mem_ctrls.writePktSize::0                    0                       # Write request sizes (log2)
system.mem_ctrls.writePktSize::1                    0                       # Write request sizes (log2)
system.mem_ctrls.writePktSize::2                    0                       # Write request sizes (log2)
system.mem_ctrls.writePktSize::3                    0                       # Write request sizes (log2)
system.mem_ctrls.writePktSize::4                    0                       # Write request sizes (log2)
system.mem_ctrls.writePktSize::5                    0                       # Write request sizes (log2)
system.mem_ctrls.writePktSize::6                 6380                       # Write request sizes (log2)
system.mem_ctrls.rdQLenPdf::0                    5010                       # What read queue length does an incoming req see
system.mem_ctrls.rdQLenPdf::1                    2912                       # What read queue length does an incoming req see
system.mem_ctrls.rdQLenPdf::2                    1821                       # What read queue length does an incoming req see
system.mem_ctrls.rdQLenPdf::3                    1318                       # What read queue length does an incoming req see
system.mem_ctrls.rdQLenPdf::4                      12                       # What read queue length does an incoming req see
system.mem_ctrls.rdQLenPdf::5                       5                       # What read queue length does an incoming req see
system.mem_ctrls.rdQLenPdf::6                       3                       # What read queue length does an incoming req see
system.mem_ctrls.rdQLenPdf::7                       1                       # What read queue length does an incoming req see
system.mem_ctrls.rdQLenPdf::8                       2                       # What read queue length does an incoming req see
system.mem_ctrls.rdQLenPdf::9                       0                       # What read queue length does an incoming req see
system.mem_ctrls.rdQLenPdf::10                      0                       # What read queue length does an incoming req see
system.mem_ctrls.rdQLenPdf::11                      0                       # What read queue length does an incoming req see
system.mem_ctrls.rdQLenPdf::12                      0                       # What read queue length does an incoming req see
system.mem_ctrls.rdQLenPdf::13                      0                       # What read queue length does an incoming req see
system.mem_ctrls.rdQLenPdf::14                      0                       # What read queue length does an incoming req see
system.mem_ctrls.rdQLenPdf::15                      0                       # What read queue length does an incoming req see
system.mem_ctrls.rdQLenPdf::16                      0                       # What read queue length does an incoming req see
system.mem_ctrls.rdQLenPdf::17                      0                       # What read queue length does an incoming req see
system.mem_ctrls.rdQLenPdf::18                      0                       # What read queue length does an incoming req see
system.mem_ctrls.rdQLenPdf::19                      0                       # What read queue length does an incoming req see
system.mem_ctrls.rdQLenPdf::20                      0                       # What read queue length does an incoming req see
system.mem_ctrls.rdQLenPdf::21                      0                       # What read queue length does an incoming req see
system.mem_ctrls.rdQLenPdf::22                      0                       # What read queue length does an incoming req see
system.mem_ctrls.rdQLenPdf::23                      0                       # What read queue length does an incoming req see
system.mem_ctrls.rdQLenPdf::24                      0                       # What read queue length does an incoming req see
system.mem_ctrls.rdQLenPdf::25                      0                       # What read queue length does an incoming req see
system.mem_ctrls.rdQLenPdf::26                      0                       # What read queue length does an incoming req see
system.mem_ctrls.rdQLenPdf::27                      0                       # What read queue length does an incoming req see
system.mem_ctrls.rdQLenPdf::28                      0                       # What read queue length does an incoming req see
system.mem_ctrls.rdQLenPdf::29                      0                       # What read queue length does an incoming req see
system.mem_ctrls.rdQLenPdf::30                      0                       # What read queue length does an incoming req see
system.mem_ctrls.rdQLenPdf::31                      0                       # What read queue length does an incoming req see
system.mem_ctrls.wrQLenPdf::0                       1                       # What write queue length does an incoming req see
system.mem_ctrls.wrQLenPdf::1                       1                       # What write queue length does an incoming req see
system.mem_ctrls.wrQLenPdf::2                       1                       # What write queue length does an incoming req see
system.mem_ctrls.wrQLenPdf::3                       1                       # What write queue length does an incoming req see
system.mem_ctrls.wrQLenPdf::4                       1                       # What write queue length does an incoming req see
system.mem_ctrls.wrQLenPdf::5                       1                       # What write queue length does an incoming req see
system.mem_ctrls.wrQLenPdf::6                       1                       # What write queue length does an incoming req see
system.mem_ctrls.wrQLenPdf::7                       1                       # What write queue length does an incoming req see
system.mem_ctrls.wrQLenPdf::8                       1                       # What write queue length does an incoming req see
system.mem_ctrls.wrQLenPdf::9                       1                       # What write queue length does an incoming req see
system.mem_ctrls.wrQLenPdf::10                      1                       # What write queue length does an incoming req see
system.mem_ctrls.wrQLenPdf::11                      1                       # What write queue length does an incoming req see
system.mem_ctrls.wrQLenPdf::12                      1                       # What write queue length does an incoming req see
system.mem_ctrls.wrQLenPdf::13                      1                       # What write queue length does an incoming req see
system.mem_ctrls.wrQLenPdf::14                      1                       # What write queue length does an incoming req see
system.mem_ctrls.wrQLenPdf::15                     47                       # What write queue length does an incoming req see
system.mem_ctrls.wrQLenPdf::16                     52                       # What write queue length does an incoming req see
system.mem_ctrls.wrQLenPdf::17                    180                       # What write queue length does an incoming req see
system.mem_ctrls.wrQLenPdf::18                    302                       # What write queue length does an incoming req see
system.mem_ctrls.wrQLenPdf::19                    362                       # What write queue length does an incoming req see
system.mem_ctrls.wrQLenPdf::20                    386                       # What write queue length does an incoming req see
system.mem_ctrls.wrQLenPdf::21                    405                       # What write queue length does an incoming req see
system.mem_ctrls.wrQLenPdf::22                    398                       # What write queue length does an incoming req see
system.mem_ctrls.wrQLenPdf::23                    402                       # What write queue length does an incoming req see
system.mem_ctrls.wrQLenPdf::24                    408                       # What write queue length does an incoming req see
system.mem_ctrls.wrQLenPdf::25                    425                       # What write queue length does an incoming req see
system.mem_ctrls.wrQLenPdf::26                    479                       # What write queue length does an incoming req see
system.mem_ctrls.wrQLenPdf::27                    415                       # What write queue length does an incoming req see
system.mem_ctrls.wrQLenPdf::28                    415                       # What write queue length does an incoming req see
system.mem_ctrls.wrQLenPdf::29                    476                       # What write queue length does an incoming req see
system.mem_ctrls.wrQLenPdf::30                    410                       # What write queue length does an incoming req see
system.mem_ctrls.wrQLenPdf::31                    403                       # What write queue length does an incoming req see
system.mem_ctrls.wrQLenPdf::32                    392                       # What write queue length does an incoming req see
system.mem_ctrls.wrQLenPdf::33                      3                       # What write queue length does an incoming req see
system.mem_ctrls.wrQLenPdf::34                      1                       # What write queue length does an incoming req see
system.mem_ctrls.wrQLenPdf::35                      1                       # What write queue length does an incoming req see
system.mem_ctrls.wrQLenPdf::36                      1                       # What write queue length does an incoming req see
system.mem_ctrls.wrQLenPdf::37                      1                       # What write queue length does an incoming req see
system.mem_ctrls.wrQLenPdf::38                      1                       # What write queue length does an incoming req see
system.mem_ctrls.wrQLenPdf::39                      0                       # What write queue length does an incoming req see
system.mem_ctrls.wrQLenPdf::40                      0                       # What write queue length does an incoming req see
system.mem_ctrls.wrQLenPdf::41                      0                       # What write queue length does an incoming req see
system.mem_ctrls.wrQLenPdf::42                      0                       # What write queue length does an incoming req see
system.mem_ctrls.wrQLenPdf::43                      0                       # What write queue length does an incoming req see
system.mem_ctrls.wrQLenPdf::44                      0                       # What write queue length does an incoming req see
system.mem_ctrls.wrQLenPdf::45                      0                       # What write queue length does an incoming req see
system.mem_ctrls.wrQLenPdf::46                      0                       # What write queue length does an incoming req see
system.mem_ctrls.wrQLenPdf::47                      0                       # What write queue length does an incoming req see
system.mem_ctrls.wrQLenPdf::48                      0                       # What write queue length does an incoming req see
system.mem_ctrls.wrQLenPdf::49                      0                       # What write queue length does an incoming req see
system.mem_ctrls.wrQLenPdf::50                      0                       # What write queue length does an incoming req see
system.mem_ctrls.wrQLenPdf::51                      0                       # What write queue length does an incoming req see
system.mem_ctrls.wrQLenPdf::52                      0                       # What write queue length does an incoming req see
system.mem_ctrls.wrQLenPdf::53                      0                       # What write queue length does an incoming req see
system.mem_ctrls.wrQLenPdf::54                      0                       # What write queue length does an incoming req see
system.mem_ctrls.wrQLenPdf::55                      0                       # What write queue length does an incoming req see
system.mem_ctrls.wrQLenPdf::56                      0                       # What write queue length does an incoming req see
system.mem_ctrls.wrQLenPdf::57                      0                       # What write queue length does an incoming req see
system.mem_ctrls.wrQLenPdf::58                      0                       # What write queue length does an incoming req see
system.mem_ctrls.wrQLenPdf::59                      0                       # What write queue length does an incoming req see
system.mem_ctrls.wrQLenPdf::60                      0                       # What write queue length does an incoming req see
system.mem_ctrls.wrQLenPdf::61                      0                       # What write queue length does an incoming req see
system.mem_ctrls.wrQLenPdf::62                      0                       # What write queue length does an incoming req see
system.mem_ctrls.wrQLenPdf::63                      0                       # What write queue length does an incoming req see
system.mem_ctrls.bytesPerActivate::samples         4123                       # Bytes accessed per row activation
system.mem_ctrls.bytesPerActivate::mean    270.715498                       # Bytes accessed per row activation
system.mem_ctrls.bytesPerActivate::gmean   164.177540                       # Bytes accessed per row activation
system.mem_ctrls.bytesPerActivate::stdev   296.774253                       # Bytes accessed per row activation
system.mem_ctrls.bytesPerActivate::0-127         1658     40.21%     40.21% # Bytes accessed per row activation
system.mem_ctrls.bytesPerActivate::128-255         1003     24.33%     64.54% # Bytes accessed per row activation
system.mem_ctrls.bytesPerActivate::256-383          475     11.52%     76.06% # Bytes accessed per row activation
system.mem_ctrls.bytesPerActivate::384-511          228      5.53%     81.59% # Bytes accessed per row activation
system.mem_ctrls.bytesPerActivate::512-639          187      4.54%     86.13% # Bytes accessed per row activation
system.mem_ctrls.bytesPerActivate::640-767           82      1.99%     88.12% # Bytes accessed per row activation
system.mem_ctrls.bytesPerActivate::768-895           89      2.16%     90.27% # Bytes accessed per row activation
system.mem_ctrls.bytesPerActivate::896-1023           43      1.04%     91.32% # Bytes accessed per row activation
system.mem_ctrls.bytesPerActivate::1024-1151          358      8.68%    100.00% # Bytes accessed per row activation
system.mem_ctrls.bytesPerActivate::total         4123                       # Bytes accessed per row activation
system.mem_ctrls.rdPerTurnAround::samples          390                       # Reads before turning the bus around for writes
system.mem_ctrls.rdPerTurnAround::mean      28.415385                       # Reads before turning the bus around for writes
system.mem_ctrls.rdPerTurnAround::gmean     25.539896                       # Reads before turning the bus around for writes
system.mem_ctrls.rdPerTurnAround::stdev     15.488175                       # Reads before turning the bus around for writes
system.mem_ctrls.rdPerTurnAround::4-7               1      0.26%      0.26% # Reads before turning the bus around for writes
system.mem_ctrls.rdPerTurnAround::8-11              5      1.28%      1.54% # Reads before turning the bus around for writes
system.mem_ctrls.rdPerTurnAround::12-15            13      3.33%      4.87% # Reads before turning the bus around for writes
system.mem_ctrls.rdPerTurnAround::16-19            73     18.72%     23.59% # Reads before turning the bus around for writes
system.mem_ctrls.rdPerTurnAround::20-23            86     22.05%     45.64% # Reads before turning the bus around for writes
system.mem_ctrls.rdPerTurnAround::24-27            63     16.15%     61.79% # Reads before turning the bus around for writes
system.mem_ctrls.rdPerTurnAround::28-31            42     10.77%     72.56% # Reads before turning the bus around for writes
system.mem_ctrls.rdPerTurnAround::32-35            29      7.44%     80.00% # Reads before turning the bus around for writes
system.mem_ctrls.rdPerTurnAround::36-39            18      4.62%     84.62% # Reads before turning the bus around for writes
system.mem_ctrls.rdPerTurnAround::40-43            12      3.08%     87.69% # Reads before turning the bus around for writes
system.mem_ctrls.rdPerTurnAround::44-47            14      3.59%     91.28% # Reads before turning the bus around for writes
system.mem_ctrls.rdPerTurnAround::48-51             7      1.79%     93.08% # Reads before turning the bus around for writes
system.mem_ctrls.rdPerTurnAround::52-55             5      1.28%     94.36% # Reads before turning the bus around for writes
system.mem_ctrls.rdPerTurnAround::56-59             1      0.26%     94.62% # Reads before turning the bus around for writes
system.mem_ctrls.rdPerTurnAround::60-63             4      1.03%     95.64% # Reads before turning the bus around for writes
system.mem_ctrls.rdPerTurnAround::64-67             3      0.77%     96.41% # Reads before turning the bus around for writes
system.mem_ctrls.rdPerTurnAround::68-71             1      0.26%     96.67% # Reads before turning the bus around for writes
system.mem_ctrls.rdPerTurnAround::72-75             3      0.77%     97.44% # Reads before turning the bus around for writes
system.mem_ctrls.rdPerTurnAround::76-79             1      0.26%     97.69% # Reads before turning the bus around for writes
system.mem_ctrls.rdPerTurnAround::80-83             3      0.77%     98.46% # Reads before turning the bus around for writes
system.mem_ctrls.rdPerTurnAround::84-87             2      0.51%     98.97% # Reads before turning the bus around for writes
system.mem_ctrls.rdPerTurnAround::96-99             2      0.51%     99.49% # Reads before turning the bus around for writes
system.mem_ctrls.rdPerTurnAround::112-115            2      0.51%    100.00% # Reads before turning the bus around for writes
system.mem_ctrls.rdPerTurnAround::total           390                       # Reads before turning the bus around for writes
system.mem_ctrls.wrPerTurnAround::samples          390                       # Writes before turning the bus around for reads
system.mem_ctrls.wrPerTurnAround::mean      16.312821                       # Writes before turning the bus around for reads
system.mem_ctrls.wrPerTurnAround::gmean     16.292792                       # Writes before turning the bus around for reads
system.mem_ctrls.wrPerTurnAround::stdev      0.845122                       # Writes before turning the bus around for reads
system.mem_ctrls.wrPerTurnAround::16              338     86.67%     86.67% # Writes before turning the bus around for reads
system.mem_ctrls.wrPerTurnAround::17                3      0.77%     87.44% # Writes before turning the bus around for reads
system.mem_ctrls.wrPerTurnAround::18               33      8.46%     95.90% # Writes before turning the bus around for reads
system.mem_ctrls.wrPerTurnAround::19               12      3.08%     98.97% # Writes before turning the bus around for reads
system.mem_ctrls.wrPerTurnAround::20                3      0.77%     99.74% # Writes before turning the bus around for reads
system.mem_ctrls.wrPerTurnAround::21                1      0.26%    100.00% # Writes before turning the bus around for reads
system.mem_ctrls.wrPerTurnAround::total           390                       # Writes before turning the bus around for reads
system.mem_ctrls.totQLat                    232233750                       # Total ticks spent queuing
system.mem_ctrls.totMemAccLat               440058750                       # Total ticks spent from burst creation until serviced by the DRAM
system.mem_ctrls.totBusLat                   55420000                       # Total ticks spent in databus transfers
system.mem_ctrls.avgQLat                     20952.16                       # Average queueing delay per DRAM burst
system.mem_ctrls.avgBusLat                    5000.00                       # Average bus latency per DRAM burst
system.mem_ctrls.avgMemAccLat                39702.16                       # Average memory access latency per DRAM burst
system.mem_ctrls.avgRdBW                       954.40                       # Average DRAM read bandwidth in MiByte/s
system.mem_ctrls.avgWrBW                       547.81                       # Average achieved write bandwidth in MiByte/s
system.mem_ctrls.avgRdBWSys                    955.87                       # Average system read bandwidth in MiByte/s
system.mem_ctrls.avgWrBWSys                    549.36                       # Average system write bandwidth in MiByte/s
system.mem_ctrls.peakBW                      12800.00                       # Theoretical peak bandwidth in MiByte/s
system.mem_ctrls.busUtil                        11.74                       # Data bus utilization in percentage
system.mem_ctrls.busUtilRead                     7.46                       # Data bus utilization in percentage for reads
system.mem_ctrls.busUtilWrite                    4.28                       # Data bus utilization in percentage for writes
system.mem_ctrls.avgRdQLen                       1.87                       # Average read queue length when enqueuing
system.mem_ctrls.avgWrQLen                      25.94                       # Average write queue length when enqueuing
system.mem_ctrls.readRowHits                     9050                       # Number of row buffer hits during reads
system.mem_ctrls.writeRowHits                    4268                       # Number of row buffer hits during writes
system.mem_ctrls.readRowHitRate                 81.65                       # Row buffer hit rate for reads
system.mem_ctrls.writeRowHitRate                66.90                       # Row buffer hit rate for writes
system.mem_ctrls.avgGap                      42386.59                       # Average gap between requests
system.mem_ctrls.pageHitRate                    76.26                       # Row buffer hit rate, read and write combined
system.mem_ctrls_0.actEnergy                 15135120                       # Energy for activate commands per rank (pJ)
system.mem_ctrls_0.preEnergy                  8258250                       # Energy for precharge commands per rank (pJ)
system.mem_ctrls_0.readEnergy                37884600                       # Energy for read commands per rank (pJ)
system.mem_ctrls_0.writeEnergy               20774880                       # Energy for write commands per rank (pJ)
system.mem_ctrls_0.refreshEnergy             48313200                       # Energy for refresh commands per rank (pJ)
system.mem_ctrls_0.actBackEnergy            469004265                       # Energy for active background per rank (pJ)
system.mem_ctrls_0.preBackEnergy             32565000                       # Energy for precharge background per rank (pJ)
system.mem_ctrls_0.totalEnergy              631935315                       # Total energy per rank (pJ)
system.mem_ctrls_0.averagePower            854.020018                       # Core power per rank (mW)
system.mem_ctrls_0.memoryStateTime::IDLE     51242500                       # Time in different power states
system.mem_ctrls_0.memoryStateTime::REF      24700000                       # Time in different power states
system.mem_ctrls_0.memoryStateTime::PRE_PDN            0                       # Time in different power states
system.mem_ctrls_0.memoryStateTime::ACT     664595000                       # Time in different power states
system.mem_ctrls_0.memoryStateTime::ACT_PDN            0                       # Time in different power states
system.mem_ctrls_1.actEnergy                 16004520                       # Energy for activate commands per rank (pJ)
system.mem_ctrls_1.preEnergy                  8732625                       # Energy for precharge commands per rank (pJ)
system.mem_ctrls_1.readEnergy                48531600                       # Energy for read commands per rank (pJ)
system.mem_ctrls_1.writeEnergy               20347200                       # Energy for write commands per rank (pJ)
system.mem_ctrls_1.refreshEnergy             48313200                       # Energy for refresh commands per rank (pJ)
system.mem_ctrls_1.actBackEnergy            461144250                       # Energy for active background per rank (pJ)
system.mem_ctrls_1.preBackEnergy             39459750                       # Energy for precharge background per rank (pJ)
system.mem_ctrls_1.totalEnergy              642533145                       # Total energy per rank (pJ)
system.mem_ctrls_1.averagePower            868.342305                       # Core power per rank (mW)
system.mem_ctrls_1.memoryStateTime::IDLE     62508500                       # Time in different power states
system.mem_ctrls_1.memoryStateTime::REF      24700000                       # Time in different power states
system.mem_ctrls_1.memoryStateTime::PRE_PDN            0                       # Time in different power states
system.mem_ctrls_1.memoryStateTime::ACT     653034500                       # Time in different power states
system.mem_ctrls_1.memoryStateTime::ACT_PDN            0                       # Time in different power states
system.cpu_voltage_domain.voltage                   1                       # Voltage in Volts
system.cpu_clk_domain.clock                       500                       # Clock period in ticks
system.cpu0.dtb.fetch_hits                          0                       # ITB hits
system.cpu0.dtb.fetch_misses                        0                       # ITB misses
system.cpu0.dtb.fetch_acv                           0                       # ITB acv
system.cpu0.dtb.fetch_accesses                      0                       # ITB accesses
system.cpu0.dtb.read_hits                           0                       # DTB read hits
system.cpu0.dtb.read_misses                         0                       # DTB read misses
system.cpu0.dtb.read_acv                            0                       # DTB read access violations
system.cpu0.dtb.read_accesses                       0                       # DTB read accesses
system.cpu0.dtb.write_hits                          0                       # DTB write hits
system.cpu0.dtb.write_misses                        0                       # DTB write misses
system.cpu0.dtb.write_acv                           0                       # DTB write access violations
system.cpu0.dtb.write_accesses                      0                       # DTB write accesses
system.cpu0.dtb.data_hits                           0                       # DTB hits
system.cpu0.dtb.data_misses                         0                       # DTB misses
system.cpu0.dtb.data_acv                            0                       # DTB access violations
system.cpu0.dtb.data_accesses                       0                       # DTB accesses
system.cpu0.itb.fetch_hits                          0                       # ITB hits
system.cpu0.itb.fetch_misses                        0                       # ITB misses
system.cpu0.itb.fetch_acv                           0                       # ITB acv
system.cpu0.itb.fetch_accesses                      0                       # ITB accesses
system.cpu0.itb.read_hits                           0                       # DTB read hits
system.cpu0.itb.read_misses                         0                       # DTB read misses
system.cpu0.itb.read_acv                            0                       # DTB read access violations
system.cpu0.itb.read_accesses                       0                       # DTB read accesses
system.cpu0.itb.write_hits                          0                       # DTB write hits
system.cpu0.itb.write_misses                        0                       # DTB write misses
system.cpu0.itb.write_acv                           0                       # DTB write access violations
system.cpu0.itb.write_accesses                      0                       # DTB write accesses
system.cpu0.itb.data_hits                           0                       # DTB hits
system.cpu0.itb.data_misses                         0                       # DTB misses
system.cpu0.itb.data_acv                            0                       # DTB access violations
system.cpu0.itb.data_accesses                       0                       # DTB accesses
system.cpu0.numCycles                               0                       # number of cpu cycles simulated
system.cpu0.numWorkItemsStarted                     0                       # number of work items this cpu started
system.cpu0.numWorkItemsCompleted                   0                       # number of work items this cpu completed
system.cpu0.committedInsts                          0                       # Number of instructions committed
system.cpu0.committedOps                            0                       # Number of ops (including micro ops) committed
system.cpu0.num_int_alu_accesses                    0                       # Number of integer alu accesses
system.cpu0.num_fp_alu_accesses                     0                       # Number of float alu accesses
system.cpu0.num_func_calls                          0                       # number of times a function call or return occured
system.cpu0.num_conditional_control_insts            0                       # number of instructions that are conditional controls
system.cpu0.num_int_insts                           0                       # number of integer instructions
system.cpu0.num_fp_insts                            0                       # number of float instructions
system.cpu0.num_int_register_reads                  0                       # number of times the integer registers were read
system.cpu0.num_int_register_writes                 0                       # number of times the integer registers were written
system.cpu0.num_fp_register_reads                   0                       # number of times the floating registers were read
system.cpu0.num_fp_register_writes                  0                       # number of times the floating registers were written
system.cpu0.num_mem_refs                            0                       # number of memory refs
system.cpu0.num_load_insts                          0                       # Number of load instructions
system.cpu0.num_store_insts                         0                       # Number of store instructions
system.cpu0.num_idle_cycles                         0                       # Number of idle cycles
system.cpu0.num_busy_cycles                         0                       # Number of busy cycles
system.cpu0.not_idle_fraction                       1                       # Percentage of non-idle cycles
system.cpu0.idle_fraction                           0                       # Percentage of idle cycles
system.cpu0.op_class::No_OpClass                    0                       # Class of executed instruction
system.cpu0.op_class::IntAlu                        0                       # Class of executed instruction
system.cpu0.op_class::IntMult                       0                       # Class of executed instruction
system.cpu0.op_class::IntDiv                        0                       # Class of executed instruction
system.cpu0.op_class::FloatAdd                      0                       # Class of executed instruction
system.cpu0.op_class::FloatCmp                      0                       # Class of executed instruction
system.cpu0.op_class::FloatCvt                      0                       # Class of executed instruction
system.cpu0.op_class::FloatMult                     0                       # Class of executed instruction
system.cpu0.op_class::FloatDiv                      0                       # Class of executed instruction
system.cpu0.op_class::FloatSqrt                     0                       # Class of executed instruction
system.cpu0.op_class::SimdAdd                       0                       # Class of executed instruction
system.cpu0.op_class::SimdAddAcc                    0                       # Class of executed instruction
system.cpu0.op_class::SimdAlu                       0                       # Class of executed instruction
system.cpu0.op_class::SimdCmp                       0                       # Class of executed instruction
system.cpu0.op_class::SimdCvt                       0                       # Class of executed instruction
system.cpu0.op_class::SimdMisc                      0                       # Class of executed instruction
system.cpu0.op_class::SimdMult                      0                       # Class of executed instruction
system.cpu0.op_class::SimdMultAcc                   0                       # Class of executed instruction
system.cpu0.op_class::SimdShift                     0                       # Class of executed instruction
system.cpu0.op_class::SimdShiftAcc                  0                       # Class of executed instruction
system.cpu0.op_class::SimdSqrt                      0                       # Class of executed instruction
system.cpu0.op_class::SimdFloatAdd                  0                       # Class of executed instruction
system.cpu0.op_class::SimdFloatAlu                  0                       # Class of executed instruction
system.cpu0.op_class::SimdFloatCmp                  0                       # Class of executed instruction
system.cpu0.op_class::SimdFloatCvt                  0                       # Class of executed instruction
system.cpu0.op_class::SimdFloatDiv                  0                       # Class of executed instruction
system.cpu0.op_class::SimdFloatMisc                 0                       # Class of executed instruction
system.cpu0.op_class::SimdFloatMult                 0                       # Class of executed instruction
system.cpu0.op_class::SimdFloatMultAcc              0                       # Class of executed instruction
system.cpu0.op_class::SimdFloatSqrt                 0                       # Class of executed instruction
system.cpu0.op_class::MemRead                       0                       # Class of executed instruction
system.cpu0.op_class::MemWrite                      0                       # Class of executed instruction
system.cpu0.op_class::IprAccess                     0                       # Class of executed instruction
system.cpu0.op_class::InstPrefetch                  0                       # Class of executed instruction
system.cpu0.op_class::total                         0                       # Class of executed instruction
system.cpu0.kern.inst.arm                           0                       # number of arm instructions executed
system.cpu0.kern.inst.quiesce                       3                       # number of quiesce instructions executed
system.cpu0.kern.inst.hwrei                       597                       # number of hwrei instructions executed
system.cpu0.kern.ipl_count::0                     168     46.28%     46.28% # number of times we switched to this ipl
system.cpu0.kern.ipl_count::22                      1      0.28%     46.56% # number of times we switched to this ipl
system.cpu0.kern.ipl_count::30                      1      0.28%     46.83% # number of times we switched to this ipl
system.cpu0.kern.ipl_count::31                    193     53.17%    100.00% # number of times we switched to this ipl
system.cpu0.kern.ipl_count::total                 363                       # number of times we switched to this ipl
system.cpu0.kern.ipl_good::0                      168     49.85%     49.85% # number of times we switched to this ipl from a different ipl
system.cpu0.kern.ipl_good::22                       1      0.30%     50.15% # number of times we switched to this ipl from a different ipl
system.cpu0.kern.ipl_good::30                       1      0.30%     50.45% # number of times we switched to this ipl from a different ipl
system.cpu0.kern.ipl_good::31                     167     49.55%    100.00% # number of times we switched to this ipl from a different ipl
system.cpu0.kern.ipl_good::total                  337                       # number of times we switched to this ipl from a different ipl
system.cpu0.kern.ipl_ticks::0               411457000     90.90%     90.90% # number of cycles we spent at this ipl
system.cpu0.kern.ipl_ticks::22                 419000      0.09%     90.99% # number of cycles we spent at this ipl
system.cpu0.kern.ipl_ticks::30                1368000      0.30%     91.30% # number of cycles we spent at this ipl
system.cpu0.kern.ipl_ticks::31               39396000      8.70%    100.00% # number of cycles we spent at this ipl
system.cpu0.kern.ipl_ticks::total           452640000                       # number of cycles we spent at this ipl
system.cpu0.kern.ipl_used::0                        1                       # fraction of swpipl calls that actually changed the ipl
system.cpu0.kern.ipl_used::22                       1                       # fraction of swpipl calls that actually changed the ipl
system.cpu0.kern.ipl_used::30                       1                       # fraction of swpipl calls that actually changed the ipl
system.cpu0.kern.ipl_used::31                0.865285                       # fraction of swpipl calls that actually changed the ipl
system.cpu0.kern.ipl_used::total             0.928375                       # fraction of swpipl calls that actually changed the ipl
system.cpu0.kern.syscall::2                         1     33.33%     33.33% # number of syscalls executed
system.cpu0.kern.syscall::3                         1     33.33%     66.67% # number of syscalls executed
system.cpu0.kern.syscall::19                        1     33.33%    100.00% # number of syscalls executed
system.cpu0.kern.syscall::total                     3                       # number of syscalls executed
system.cpu0.kern.callpal::wripir                    1      0.26%      0.26% # number of callpals executed
system.cpu0.kern.callpal::swpctx                   12      3.08%      3.34% # number of callpals executed
system.cpu0.kern.callpal::tbi                       2      0.51%      3.86% # number of callpals executed
system.cpu0.kern.callpal::swpipl                  342     87.92%     91.77% # number of callpals executed
system.cpu0.kern.callpal::rdps                      2      0.51%     92.29% # number of callpals executed
system.cpu0.kern.callpal::rdusp                     1      0.26%     92.54% # number of callpals executed
system.cpu0.kern.callpal::rti                      19      4.88%     97.43% # number of callpals executed
system.cpu0.kern.callpal::callsys                   9      2.31%     99.74% # number of callpals executed
system.cpu0.kern.callpal::imb                       1      0.26%    100.00% # number of callpals executed
system.cpu0.kern.callpal::total                   389                       # number of callpals executed
system.cpu0.kern.mode_switch::kernel               32                       # number of protection mode switches
system.cpu0.kern.mode_switch::user                 17                       # number of protection mode switches
system.cpu0.kern.mode_switch::idle                  0                       # number of protection mode switches
system.cpu0.kern.mode_good::kernel                 18                      
system.cpu0.kern.mode_good::user                   17                      
system.cpu0.kern.mode_good::idle                    0                      
system.cpu0.kern.mode_switch_good::kernel     0.562500                       # fraction of useful protection mode switches
system.cpu0.kern.mode_switch_good::user             1                       # fraction of useful protection mode switches
system.cpu0.kern.mode_switch_good::idle           nan                       # fraction of useful protection mode switches
system.cpu0.kern.mode_switch_good::total     0.714286                       # fraction of useful protection mode switches
system.cpu0.kern.mode_ticks::kernel         118171500     69.22%     69.22% # number of ticks spent at the given mode
system.cpu0.kern.mode_ticks::user            52552500     30.78%    100.00% # number of ticks spent at the given mode
system.cpu0.kern.mode_ticks::idle                   0      0.00%    100.00% # number of ticks spent at the given mode
system.cpu0.kern.swap_context                      12                       # number of times the context was actually changed
system.cpu0.dcache.tags.replacements             4870                       # number of replacements
system.cpu0.dcache.tags.tagsinuse          502.313311                       # Cycle average of tags in use
system.cpu0.dcache.tags.total_refs              56196                       # Total number of references to valid blocks.
system.cpu0.dcache.tags.sampled_refs             4870                       # Sample count of references to valid blocks.
system.cpu0.dcache.tags.avg_refs            11.539220                       # Average number of references to valid blocks.
system.cpu0.dcache.tags.warmup_cycle                0                       # Cycle when the warmup percentage was hit.
system.cpu0.dcache.tags.occ_blocks::cpu0.data    21.707246                       # Average occupied blocks per requestor
system.cpu0.dcache.tags.occ_blocks::switch_cpus0.data   480.606065                       # Average occupied blocks per requestor
system.cpu0.dcache.tags.occ_percent::cpu0.data     0.042397                       # Average percentage of cache occupancy
system.cpu0.dcache.tags.occ_percent::switch_cpus0.data     0.938684                       # Average percentage of cache occupancy
system.cpu0.dcache.tags.occ_percent::total     0.981081                       # Average percentage of cache occupancy
system.cpu0.dcache.tags.occ_task_id_blocks::1024          500                       # Occupied blocks per task id
system.cpu0.dcache.tags.age_task_id_blocks_1024::2          500                       # Occupied blocks per task id
system.cpu0.dcache.tags.occ_task_id_percent::1024     0.976562                       # Percentage of cache occupancy per task id
system.cpu0.dcache.tags.tag_accesses           288570                       # Number of tag accesses
system.cpu0.dcache.tags.data_accesses          288570                       # Number of data accesses
system.cpu0.dcache.ReadReq_hits::switch_cpus0.data        32019                       # number of ReadReq hits
system.cpu0.dcache.ReadReq_hits::total          32019                       # number of ReadReq hits
system.cpu0.dcache.WriteReq_hits::switch_cpus0.data        13959                       # number of WriteReq hits
system.cpu0.dcache.WriteReq_hits::total         13959                       # number of WriteReq hits
system.cpu0.dcache.LoadLockedReq_hits::switch_cpus0.data          553                       # number of LoadLockedReq hits
system.cpu0.dcache.LoadLockedReq_hits::total          553                       # number of LoadLockedReq hits
system.cpu0.dcache.StoreCondReq_hits::switch_cpus0.data          600                       # number of StoreCondReq hits
system.cpu0.dcache.StoreCondReq_hits::total          600                       # number of StoreCondReq hits
system.cpu0.dcache.demand_hits::switch_cpus0.data        45978                       # number of demand (read+write) hits
system.cpu0.dcache.demand_hits::total           45978                       # number of demand (read+write) hits
system.cpu0.dcache.overall_hits::switch_cpus0.data        45978                       # number of overall hits
system.cpu0.dcache.overall_hits::total          45978                       # number of overall hits
system.cpu0.dcache.ReadReq_misses::switch_cpus0.data         9462                       # number of ReadReq misses
system.cpu0.dcache.ReadReq_misses::total         9462                       # number of ReadReq misses
system.cpu0.dcache.WriteReq_misses::switch_cpus0.data        14146                       # number of WriteReq misses
system.cpu0.dcache.WriteReq_misses::total        14146                       # number of WriteReq misses
system.cpu0.dcache.LoadLockedReq_misses::switch_cpus0.data          153                       # number of LoadLockedReq misses
system.cpu0.dcache.LoadLockedReq_misses::total          153                       # number of LoadLockedReq misses
system.cpu0.dcache.StoreCondReq_misses::switch_cpus0.data           20                       # number of StoreCondReq misses
system.cpu0.dcache.StoreCondReq_misses::total           20                       # number of StoreCondReq misses
system.cpu0.dcache.demand_misses::switch_cpus0.data        23608                       # number of demand (read+write) misses
system.cpu0.dcache.demand_misses::total         23608                       # number of demand (read+write) misses
system.cpu0.dcache.overall_misses::switch_cpus0.data        23608                       # number of overall misses
system.cpu0.dcache.overall_misses::total        23608                       # number of overall misses
system.cpu0.dcache.ReadReq_miss_latency::switch_cpus0.data    286452910                       # number of ReadReq miss cycles
system.cpu0.dcache.ReadReq_miss_latency::total    286452910                       # number of ReadReq miss cycles
system.cpu0.dcache.WriteReq_miss_latency::switch_cpus0.data    306741259                       # number of WriteReq miss cycles
system.cpu0.dcache.WriteReq_miss_latency::total    306741259                       # number of WriteReq miss cycles
system.cpu0.dcache.LoadLockedReq_miss_latency::switch_cpus0.data      2857997                       # number of LoadLockedReq miss cycles
system.cpu0.dcache.LoadLockedReq_miss_latency::total      2857997                       # number of LoadLockedReq miss cycles
system.cpu0.dcache.StoreCondReq_miss_latency::switch_cpus0.data       175503                       # number of StoreCondReq miss cycles
system.cpu0.dcache.StoreCondReq_miss_latency::total       175503                       # number of StoreCondReq miss cycles
system.cpu0.dcache.StoreCondFailReq_miss_latency::switch_cpus0.data        16000                       # number of StoreCondFailReq miss cycles
system.cpu0.dcache.StoreCondFailReq_miss_latency::total        16000                       # number of StoreCondFailReq miss cycles
system.cpu0.dcache.demand_miss_latency::switch_cpus0.data    593194169                       # number of demand (read+write) miss cycles
system.cpu0.dcache.demand_miss_latency::total    593194169                       # number of demand (read+write) miss cycles
system.cpu0.dcache.overall_miss_latency::switch_cpus0.data    593194169                       # number of overall miss cycles
system.cpu0.dcache.overall_miss_latency::total    593194169                       # number of overall miss cycles
system.cpu0.dcache.ReadReq_accesses::switch_cpus0.data        41481                       # number of ReadReq accesses(hits+misses)
system.cpu0.dcache.ReadReq_accesses::total        41481                       # number of ReadReq accesses(hits+misses)
system.cpu0.dcache.WriteReq_accesses::switch_cpus0.data        28105                       # number of WriteReq accesses(hits+misses)
system.cpu0.dcache.WriteReq_accesses::total        28105                       # number of WriteReq accesses(hits+misses)
system.cpu0.dcache.LoadLockedReq_accesses::switch_cpus0.data          706                       # number of LoadLockedReq accesses(hits+misses)
system.cpu0.dcache.LoadLockedReq_accesses::total          706                       # number of LoadLockedReq accesses(hits+misses)
system.cpu0.dcache.StoreCondReq_accesses::switch_cpus0.data          620                       # number of StoreCondReq accesses(hits+misses)
system.cpu0.dcache.StoreCondReq_accesses::total          620                       # number of StoreCondReq accesses(hits+misses)
system.cpu0.dcache.demand_accesses::switch_cpus0.data        69586                       # number of demand (read+write) accesses
system.cpu0.dcache.demand_accesses::total        69586                       # number of demand (read+write) accesses
system.cpu0.dcache.overall_accesses::switch_cpus0.data        69586                       # number of overall (read+write) accesses
system.cpu0.dcache.overall_accesses::total        69586                       # number of overall (read+write) accesses
system.cpu0.dcache.ReadReq_miss_rate::switch_cpus0.data     0.228104                       # miss rate for ReadReq accesses
system.cpu0.dcache.ReadReq_miss_rate::total     0.228104                       # miss rate for ReadReq accesses
system.cpu0.dcache.WriteReq_miss_rate::switch_cpus0.data     0.503327                       # miss rate for WriteReq accesses
system.cpu0.dcache.WriteReq_miss_rate::total     0.503327                       # miss rate for WriteReq accesses
system.cpu0.dcache.LoadLockedReq_miss_rate::switch_cpus0.data     0.216714                       # miss rate for LoadLockedReq accesses
system.cpu0.dcache.LoadLockedReq_miss_rate::total     0.216714                       # miss rate for LoadLockedReq accesses
system.cpu0.dcache.StoreCondReq_miss_rate::switch_cpus0.data     0.032258                       # miss rate for StoreCondReq accesses
system.cpu0.dcache.StoreCondReq_miss_rate::total     0.032258                       # miss rate for StoreCondReq accesses
system.cpu0.dcache.demand_miss_rate::switch_cpus0.data     0.339264                       # miss rate for demand accesses
system.cpu0.dcache.demand_miss_rate::total     0.339264                       # miss rate for demand accesses
system.cpu0.dcache.overall_miss_rate::switch_cpus0.data     0.339264                       # miss rate for overall accesses
system.cpu0.dcache.overall_miss_rate::total     0.339264                       # miss rate for overall accesses
system.cpu0.dcache.ReadReq_avg_miss_latency::switch_cpus0.data 30274.034031                       # average ReadReq miss latency
system.cpu0.dcache.ReadReq_avg_miss_latency::total 30274.034031                       # average ReadReq miss latency
system.cpu0.dcache.WriteReq_avg_miss_latency::switch_cpus0.data 21683.957232                       # average WriteReq miss latency
system.cpu0.dcache.WriteReq_avg_miss_latency::total 21683.957232                       # average WriteReq miss latency
system.cpu0.dcache.LoadLockedReq_avg_miss_latency::switch_cpus0.data 18679.718954                       # average LoadLockedReq miss latency
system.cpu0.dcache.LoadLockedReq_avg_miss_latency::total 18679.718954                       # average LoadLockedReq miss latency
system.cpu0.dcache.StoreCondReq_avg_miss_latency::switch_cpus0.data  8775.150000                       # average StoreCondReq miss latency
system.cpu0.dcache.StoreCondReq_avg_miss_latency::total  8775.150000                       # average StoreCondReq miss latency
system.cpu0.dcache.StoreCondFailReq_avg_miss_latency::switch_cpus0.data          inf                       # average StoreCondFailReq miss latency
system.cpu0.dcache.StoreCondFailReq_avg_miss_latency::total          inf                       # average StoreCondFailReq miss latency
system.cpu0.dcache.demand_avg_miss_latency::switch_cpus0.data 25126.828575                       # average overall miss latency
system.cpu0.dcache.demand_avg_miss_latency::total 25126.828575                       # average overall miss latency
system.cpu0.dcache.overall_avg_miss_latency::switch_cpus0.data 25126.828575                       # average overall miss latency
system.cpu0.dcache.overall_avg_miss_latency::total 25126.828575                       # average overall miss latency
system.cpu0.dcache.blocked_cycles::no_mshrs        21205                       # number of cycles access was blocked
system.cpu0.dcache.blocked_cycles::no_targets          239                       # number of cycles access was blocked
system.cpu0.dcache.blocked::no_mshrs             1301                       # number of cycles access was blocked
system.cpu0.dcache.blocked::no_targets              6                       # number of cycles access was blocked
system.cpu0.dcache.avg_blocked_cycles::no_mshrs    16.299001                       # average number of cycles each access was blocked
system.cpu0.dcache.avg_blocked_cycles::no_targets    39.833333                       # average number of cycles each access was blocked
system.cpu0.dcache.fast_writes                      0                       # number of fast writes performed
system.cpu0.dcache.cache_copies                     0                       # number of cache copies performed
system.cpu0.dcache.writebacks::writebacks         3507                       # number of writebacks
system.cpu0.dcache.writebacks::total             3507                       # number of writebacks
system.cpu0.dcache.ReadReq_mshr_hits::switch_cpus0.data         6662                       # number of ReadReq MSHR hits
system.cpu0.dcache.ReadReq_mshr_hits::total         6662                       # number of ReadReq MSHR hits
system.cpu0.dcache.WriteReq_mshr_hits::switch_cpus0.data        12056                       # number of WriteReq MSHR hits
system.cpu0.dcache.WriteReq_mshr_hits::total        12056                       # number of WriteReq MSHR hits
system.cpu0.dcache.LoadLockedReq_mshr_hits::switch_cpus0.data           54                       # number of LoadLockedReq MSHR hits
system.cpu0.dcache.LoadLockedReq_mshr_hits::total           54                       # number of LoadLockedReq MSHR hits
system.cpu0.dcache.demand_mshr_hits::switch_cpus0.data        18718                       # number of demand (read+write) MSHR hits
system.cpu0.dcache.demand_mshr_hits::total        18718                       # number of demand (read+write) MSHR hits
system.cpu0.dcache.overall_mshr_hits::switch_cpus0.data        18718                       # number of overall MSHR hits
system.cpu0.dcache.overall_mshr_hits::total        18718                       # number of overall MSHR hits
system.cpu0.dcache.ReadReq_mshr_misses::switch_cpus0.data         2800                       # number of ReadReq MSHR misses
system.cpu0.dcache.ReadReq_mshr_misses::total         2800                       # number of ReadReq MSHR misses
system.cpu0.dcache.WriteReq_mshr_misses::switch_cpus0.data         2090                       # number of WriteReq MSHR misses
system.cpu0.dcache.WriteReq_mshr_misses::total         2090                       # number of WriteReq MSHR misses
system.cpu0.dcache.LoadLockedReq_mshr_misses::switch_cpus0.data           99                       # number of LoadLockedReq MSHR misses
system.cpu0.dcache.LoadLockedReq_mshr_misses::total           99                       # number of LoadLockedReq MSHR misses
system.cpu0.dcache.StoreCondReq_mshr_misses::switch_cpus0.data           20                       # number of StoreCondReq MSHR misses
system.cpu0.dcache.StoreCondReq_mshr_misses::total           20                       # number of StoreCondReq MSHR misses
system.cpu0.dcache.demand_mshr_misses::switch_cpus0.data         4890                       # number of demand (read+write) MSHR misses
system.cpu0.dcache.demand_mshr_misses::total         4890                       # number of demand (read+write) MSHR misses
system.cpu0.dcache.overall_mshr_misses::switch_cpus0.data         4890                       # number of overall MSHR misses
system.cpu0.dcache.overall_mshr_misses::total         4890                       # number of overall MSHR misses
system.cpu0.dcache.WriteReq_mshr_uncacheable::switch_cpus0.data            3                       # number of WriteReq MSHR uncacheable
system.cpu0.dcache.WriteReq_mshr_uncacheable::total            3                       # number of WriteReq MSHR uncacheable
system.cpu0.dcache.overall_mshr_uncacheable_misses::switch_cpus0.data            3                       # number of overall MSHR uncacheable misses
system.cpu0.dcache.overall_mshr_uncacheable_misses::total            3                       # number of overall MSHR uncacheable misses
system.cpu0.dcache.ReadReq_mshr_miss_latency::switch_cpus0.data     80353025                       # number of ReadReq MSHR miss cycles
system.cpu0.dcache.ReadReq_mshr_miss_latency::total     80353025                       # number of ReadReq MSHR miss cycles
system.cpu0.dcache.WriteReq_mshr_miss_latency::switch_cpus0.data     45631172                       # number of WriteReq MSHR miss cycles
system.cpu0.dcache.WriteReq_mshr_miss_latency::total     45631172                       # number of WriteReq MSHR miss cycles
system.cpu0.dcache.LoadLockedReq_mshr_miss_latency::switch_cpus0.data      1872503                       # number of LoadLockedReq MSHR miss cycles
system.cpu0.dcache.LoadLockedReq_mshr_miss_latency::total      1872503                       # number of LoadLockedReq MSHR miss cycles
system.cpu0.dcache.StoreCondReq_mshr_miss_latency::switch_cpus0.data       146997                       # number of StoreCondReq MSHR miss cycles
system.cpu0.dcache.StoreCondReq_mshr_miss_latency::total       146997                       # number of StoreCondReq MSHR miss cycles
system.cpu0.dcache.StoreCondFailReq_mshr_miss_latency::switch_cpus0.data        14500                       # number of StoreCondFailReq MSHR miss cycles
system.cpu0.dcache.StoreCondFailReq_mshr_miss_latency::total        14500                       # number of StoreCondFailReq MSHR miss cycles
system.cpu0.dcache.demand_mshr_miss_latency::switch_cpus0.data    125984197                       # number of demand (read+write) MSHR miss cycles
system.cpu0.dcache.demand_mshr_miss_latency::total    125984197                       # number of demand (read+write) MSHR miss cycles
system.cpu0.dcache.overall_mshr_miss_latency::switch_cpus0.data    125984197                       # number of overall MSHR miss cycles
system.cpu0.dcache.overall_mshr_miss_latency::total    125984197                       # number of overall MSHR miss cycles
system.cpu0.dcache.WriteReq_mshr_uncacheable_latency::switch_cpus0.data       673000                       # number of WriteReq MSHR uncacheable cycles
system.cpu0.dcache.WriteReq_mshr_uncacheable_latency::total       673000                       # number of WriteReq MSHR uncacheable cycles
system.cpu0.dcache.overall_mshr_uncacheable_latency::switch_cpus0.data       673000                       # number of overall MSHR uncacheable cycles
system.cpu0.dcache.overall_mshr_uncacheable_latency::total       673000                       # number of overall MSHR uncacheable cycles
system.cpu0.dcache.ReadReq_mshr_miss_rate::switch_cpus0.data     0.067501                       # mshr miss rate for ReadReq accesses
system.cpu0.dcache.ReadReq_mshr_miss_rate::total     0.067501                       # mshr miss rate for ReadReq accesses
system.cpu0.dcache.WriteReq_mshr_miss_rate::switch_cpus0.data     0.074364                       # mshr miss rate for WriteReq accesses
system.cpu0.dcache.WriteReq_mshr_miss_rate::total     0.074364                       # mshr miss rate for WriteReq accesses
system.cpu0.dcache.LoadLockedReq_mshr_miss_rate::switch_cpus0.data     0.140227                       # mshr miss rate for LoadLockedReq accesses
system.cpu0.dcache.LoadLockedReq_mshr_miss_rate::total     0.140227                       # mshr miss rate for LoadLockedReq accesses
system.cpu0.dcache.StoreCondReq_mshr_miss_rate::switch_cpus0.data     0.032258                       # mshr miss rate for StoreCondReq accesses
system.cpu0.dcache.StoreCondReq_mshr_miss_rate::total     0.032258                       # mshr miss rate for StoreCondReq accesses
system.cpu0.dcache.demand_mshr_miss_rate::switch_cpus0.data     0.070273                       # mshr miss rate for demand accesses
system.cpu0.dcache.demand_mshr_miss_rate::total     0.070273                       # mshr miss rate for demand accesses
system.cpu0.dcache.overall_mshr_miss_rate::switch_cpus0.data     0.070273                       # mshr miss rate for overall accesses
system.cpu0.dcache.overall_mshr_miss_rate::total     0.070273                       # mshr miss rate for overall accesses
system.cpu0.dcache.ReadReq_avg_mshr_miss_latency::switch_cpus0.data 28697.508929                       # average ReadReq mshr miss latency
system.cpu0.dcache.ReadReq_avg_mshr_miss_latency::total 28697.508929                       # average ReadReq mshr miss latency
system.cpu0.dcache.WriteReq_avg_mshr_miss_latency::switch_cpus0.data 21833.096651                       # average WriteReq mshr miss latency
system.cpu0.dcache.WriteReq_avg_mshr_miss_latency::total 21833.096651                       # average WriteReq mshr miss latency
system.cpu0.dcache.LoadLockedReq_avg_mshr_miss_latency::switch_cpus0.data 18914.171717                       # average LoadLockedReq mshr miss latency
system.cpu0.dcache.LoadLockedReq_avg_mshr_miss_latency::total 18914.171717                       # average LoadLockedReq mshr miss latency
system.cpu0.dcache.StoreCondReq_avg_mshr_miss_latency::switch_cpus0.data  7349.850000                       # average StoreCondReq mshr miss latency
system.cpu0.dcache.StoreCondReq_avg_mshr_miss_latency::total  7349.850000                       # average StoreCondReq mshr miss latency
system.cpu0.dcache.StoreCondFailReq_avg_mshr_miss_latency::switch_cpus0.data          inf                       # average StoreCondFailReq mshr miss latency
system.cpu0.dcache.StoreCondFailReq_avg_mshr_miss_latency::total          inf                       # average StoreCondFailReq mshr miss latency
system.cpu0.dcache.demand_avg_mshr_miss_latency::switch_cpus0.data 25763.639468                       # average overall mshr miss latency
system.cpu0.dcache.demand_avg_mshr_miss_latency::total 25763.639468                       # average overall mshr miss latency
system.cpu0.dcache.overall_avg_mshr_miss_latency::switch_cpus0.data 25763.639468                       # average overall mshr miss latency
system.cpu0.dcache.overall_avg_mshr_miss_latency::total 25763.639468                       # average overall mshr miss latency
system.cpu0.dcache.WriteReq_avg_mshr_uncacheable_latency::switch_cpus0.data 224333.333333                       # average WriteReq mshr uncacheable latency
system.cpu0.dcache.WriteReq_avg_mshr_uncacheable_latency::total 224333.333333                       # average WriteReq mshr uncacheable latency
system.cpu0.dcache.overall_avg_mshr_uncacheable_latency::switch_cpus0.data 224333.333333                       # average overall mshr uncacheable latency
system.cpu0.dcache.overall_avg_mshr_uncacheable_latency::total 224333.333333                       # average overall mshr uncacheable latency
system.cpu0.dcache.no_allocate_misses               0                       # Number of misses that were no-allocate
system.cpu0.icache.tags.replacements             3480                       # number of replacements
system.cpu0.icache.tags.tagsinuse          511.975462                       # Cycle average of tags in use
system.cpu0.icache.tags.total_refs             260315                       # Total number of references to valid blocks.
system.cpu0.icache.tags.sampled_refs             3480                       # Sample count of references to valid blocks.
system.cpu0.icache.tags.avg_refs            74.803161                       # Average number of references to valid blocks.
system.cpu0.icache.tags.warmup_cycle                0                       # Cycle when the warmup percentage was hit.
system.cpu0.icache.tags.occ_blocks::cpu0.inst    18.464153                       # Average occupied blocks per requestor
system.cpu0.icache.tags.occ_blocks::switch_cpus0.inst   493.511310                       # Average occupied blocks per requestor
system.cpu0.icache.tags.occ_percent::cpu0.inst     0.036063                       # Average percentage of cache occupancy
system.cpu0.icache.tags.occ_percent::switch_cpus0.inst     0.963889                       # Average percentage of cache occupancy
system.cpu0.icache.tags.occ_percent::total     0.999952                       # Average percentage of cache occupancy
system.cpu0.icache.tags.occ_task_id_blocks::1024          512                       # Occupied blocks per task id
system.cpu0.icache.tags.age_task_id_blocks_1024::2          512                       # Occupied blocks per task id
system.cpu0.icache.tags.occ_task_id_percent::1024            1                       # Percentage of cache occupancy per task id
system.cpu0.icache.tags.tag_accesses            84804                       # Number of tag accesses
system.cpu0.icache.tags.data_accesses           84804                       # Number of data accesses
system.cpu0.icache.ReadReq_hits::switch_cpus0.inst        36500                       # number of ReadReq hits
system.cpu0.icache.ReadReq_hits::total          36500                       # number of ReadReq hits
system.cpu0.icache.demand_hits::switch_cpus0.inst        36500                       # number of demand (read+write) hits
system.cpu0.icache.demand_hits::total           36500                       # number of demand (read+write) hits
system.cpu0.icache.overall_hits::switch_cpus0.inst        36500                       # number of overall hits
system.cpu0.icache.overall_hits::total          36500                       # number of overall hits
system.cpu0.icache.ReadReq_misses::switch_cpus0.inst         4161                       # number of ReadReq misses
system.cpu0.icache.ReadReq_misses::total         4161                       # number of ReadReq misses
system.cpu0.icache.demand_misses::switch_cpus0.inst         4161                       # number of demand (read+write) misses
[...]
system.switch_cpus3.ipc_total                0.442088                       # IPC: Total IPC of All Threads
system.switch_cpus3.int_regfile_reads          223891                       # number of integer regfile reads
system.switch_cpus3.int_regfile_writes         118674                       # number of integer regfile writes
system.switch_cpus3.fp_regfile_reads              182                       # number of floating regfile reads
system.switch_cpus3.fp_regfile_writes             169                       # number of floating regfile writes
system.switch_cpus3.misc_regfile_reads          26982                       # number of misc regfile reads
system.switch_cpus3.misc_regfile_writes          4545                       # number of misc regfile writes
system.tol2bus.trans_dist::ReadReq              55991                       # Transaction distribution
system.tol2bus.trans_dist::ReadResp             55990                       # Transaction distribution
system.tol2bus.trans_dist::WriteReq               129                       # Transaction distribution
system.tol2bus.trans_dist::WriteResp              129                       # Transaction distribution
system.tol2bus.trans_dist::Writeback            40818                       # Transaction distribution
system.tol2bus.trans_dist::UpgradeReq             522                       # Transaction distribution
system.tol2bus.trans_dist::SCUpgradeReq           163                       # Transaction distribution
system.tol2bus.trans_dist::UpgradeResp            685                       # Transaction distribution
system.tol2bus.trans_dist::ReadExReq            19872                       # Transaction distribution
system.tol2bus.trans_dist::ReadExResp           19872                       # Transaction distribution
system.tol2bus.trans_dist::BadAddressError            1                       # Transaction distribution
system.tol2bus.pkt_count_system.cpu0.icache.mem_side::system.l2.cpu_side        13365                       # Packet count per connected master and slave (bytes)
system.tol2bus.pkt_count_system.cpu0.dcache.mem_side::system.l2.cpu_side        34454                       # Packet count per connected master and slave (bytes)
system.tol2bus.pkt_count_system.cpu1.icache.mem_side::system.l2.cpu_side          240                       # Packet count per connected master and slave (bytes)
system.tol2bus.pkt_count_system.cpu1.dcache.mem_side::system.l2.cpu_side          523                       # Packet count per connected master and slave (bytes)
system.tol2bus.pkt_count_system.cpu2.icache.mem_side::system.l2.cpu_side        22935                       # Packet count per connected master and slave (bytes)
system.tol2bus.pkt_count_system.cpu2.dcache.mem_side::system.l2.cpu_side       109627                       # Packet count per connected master and slave (bytes)
system.tol2bus.pkt_count_system.cpu3.icache.mem_side::system.l2.cpu_side         4571                       # Packet count per connected master and slave (bytes)
system.tol2bus.pkt_count_system.cpu3.dcache.mem_side::system.l2.cpu_side         7542                       # Packet count per connected master and slave (bytes)
system.tol2bus.pkt_count::total                193257                       # Packet count per connected master and slave (bytes)
system.tol2bus.pkt_size_system.cpu0.icache.mem_side::system.l2.cpu_side       427648                       # Cumulative packet size per connected master and slave (bytes)
system.tol2bus.pkt_size_system.cpu0.dcache.mem_side::system.l2.cpu_side      1327655                       # Cumulative packet size per connected master and slave (bytes)
system.tol2bus.pkt_size_system.cpu1.icache.mem_side::system.l2.cpu_side         7680                       # Cumulative packet size per connected master and slave (bytes)
system.tol2bus.pkt_size_system.cpu1.dcache.mem_side::system.l2.cpu_side        15392                       # Cumulative packet size per connected master and slave (bytes)
system.tol2bus.pkt_size_system.cpu2.icache.mem_side::system.l2.cpu_side       733888                       # Cumulative packet size per connected master and slave (bytes)
system.tol2bus.pkt_size_system.cpu2.dcache.mem_side::system.l2.cpu_side      4479659                       # Cumulative packet size per connected master and slave (bytes)
system.tol2bus.pkt_size_system.cpu3.icache.mem_side::system.l2.cpu_side       146240                       # Cumulative packet size per connected master and slave (bytes)
system.tol2bus.pkt_size_system.cpu3.dcache.mem_side::system.l2.cpu_side       271920                       # Cumulative packet size per connected master and slave (bytes)
system.tol2bus.pkt_size::total                7410082                       # Cumulative packet size per connected master and slave (bytes)
system.tol2bus.snoops                             915                       # Total snoops (count)
system.tol2bus.snoop_fanout::samples           117495                       # Request fanout histogram
system.tol2bus.snoop_fanout::mean                   7                       # Request fanout histogram
system.tol2bus.snoop_fanout::stdev                  0                       # Request fanout histogram
system.tol2bus.snoop_fanout::underflows             0      0.00%      0.00% # Request fanout histogram
system.tol2bus.snoop_fanout::0                      0      0.00%      0.00% # Request fanout histogram
system.tol2bus.snoop_fanout::1                      0      0.00%      0.00% # Request fanout histogram
system.tol2bus.snoop_fanout::2                      0      0.00%      0.00% # Request fanout histogram
system.tol2bus.snoop_fanout::3                      0      0.00%      0.00% # Request fanout histogram
system.tol2bus.snoop_fanout::4                      0      0.00%      0.00% # Request fanout histogram
system.tol2bus.snoop_fanout::5                      0      0.00%      0.00% # Request fanout histogram
system.tol2bus.snoop_fanout::6                      0      0.00%      0.00% # Request fanout histogram
system.tol2bus.snoop_fanout::7                 117495    100.00%    100.00% # Request fanout histogram
system.tol2bus.snoop_fanout::8                      0      0.00%    100.00% # Request fanout histogram
system.tol2bus.snoop_fanout::overflows              0      0.00%    100.00% # Request fanout histogram
system.tol2bus.snoop_fanout::min_value              7                       # Request fanout histogram
system.tol2bus.snoop_fanout::max_value              7                       # Request fanout histogram
system.tol2bus.snoop_fanout::total             117495                       # Request fanout histogram
system.tol2bus.reqLayer0.occupancy           99630998                       # Layer occupancy (ticks)
system.tol2bus.reqLayer0.utilization              3.8                       # Layer utilization (%)
system.tol2bus.respLayer0.occupancy          10292719                       # Layer occupancy (ticks)
system.tol2bus.respLayer0.utilization             0.4                       # Layer utilization (%)
system.tol2bus.respLayer1.occupancy          20778280                       # Layer occupancy (ticks)
system.tol2bus.respLayer1.utilization             0.8                       # Layer utilization (%)
system.tol2bus.respLayer2.occupancy            182746                       # Layer occupancy (ticks)
system.tol2bus.respLayer2.utilization             0.0                       # Layer utilization (%)
system.tol2bus.respLayer3.occupancy            378255                       # Layer occupancy (ticks)
system.tol2bus.respLayer3.utilization             0.0                       # Layer utilization (%)
system.tol2bus.respLayer4.occupancy          18006947                       # Layer occupancy (ticks)
system.tol2bus.respLayer4.utilization             0.7                       # Layer utilization (%)
system.tol2bus.respLayer5.occupancy          60479517                       # Layer occupancy (ticks)
system.tol2bus.respLayer5.utilization             2.3                       # Layer utilization (%)
system.tol2bus.respLayer6.occupancy           3511218                       # Layer occupancy (ticks)
system.tol2bus.respLayer6.utilization             0.1                       # Layer utilization (%)
system.tol2bus.respLayer7.occupancy           4710505                       # Layer occupancy (ticks)
system.tol2bus.respLayer7.utilization             0.2                       # Layer utilization (%)
system.tsunami.ethernet.descDMAReads                0                       # Number of descriptors the device read w/ DMA
system.tsunami.ethernet.descDMAWrites               0                       # Number of descriptors the device wrote w/ DMA
system.tsunami.ethernet.descDmaReadBytes            0                       # number of descriptor bytes read w/ DMA
system.tsunami.ethernet.descDmaWriteBytes            0                       # number of descriptor bytes write w/ DMA
system.tsunami.ethernet.postedSwi                   0                       # number of software interrupts posted to CPU
system.tsunami.ethernet.coalescedSwi              nan                       # average number of Swi's coalesced into each post
system.tsunami.ethernet.totalSwi                    0                       # total number of Swi written to ISR
system.tsunami.ethernet.postedRxIdle                0                       # number of rxIdle interrupts posted to CPU
system.tsunami.ethernet.coalescedRxIdle           nan                       # average number of RxIdle's coalesced into each post
system.tsunami.ethernet.totalRxIdle                 0                       # total number of RxIdle written to ISR
system.tsunami.ethernet.postedRxOk                  0                       # number of RxOk interrupts posted to CPU
system.tsunami.ethernet.coalescedRxOk             nan                       # average number of RxOk's coalesced into each post
system.tsunami.ethernet.totalRxOk                   0                       # total number of RxOk written to ISR
system.tsunami.ethernet.postedRxDesc                0                       # number of RxDesc interrupts posted to CPU
system.tsunami.ethernet.coalescedRxDesc           nan                       # average number of RxDesc's coalesced into each post
system.tsunami.ethernet.totalRxDesc                 0                       # total number of RxDesc written to ISR
system.tsunami.ethernet.postedTxOk                  0                       # number of TxOk interrupts posted to CPU
system.tsunami.ethernet.coalescedTxOk             nan                       # average number of TxOk's coalesced into each post
system.tsunami.ethernet.totalTxOk                   0                       # total number of TxOk written to ISR
system.tsunami.ethernet.postedTxIdle                0                       # number of TxIdle interrupts posted to CPU
system.tsunami.ethernet.coalescedTxIdle           nan                       # average number of TxIdle's coalesced into each post
system.tsunami.ethernet.totalTxIdle                 0                       # total number of TxIdle written to ISR
system.tsunami.ethernet.postedTxDesc                0                       # number of TxDesc interrupts posted to CPU
system.tsunami.ethernet.coalescedTxDesc           nan                       # average number of TxDesc's coalesced into each post
system.tsunami.ethernet.totalTxDesc                 0                       # total number of TxDesc written to ISR
system.tsunami.ethernet.postedRxOrn                 0                       # number of RxOrn posted to CPU
system.tsunami.ethernet.coalescedRxOrn            nan                       # average number of RxOrn's coalesced into each post
system.tsunami.ethernet.totalRxOrn                  0                       # total number of RxOrn written to ISR
system.tsunami.ethernet.coalescedTotal            nan                       # average number of interrupts coalesced into each post
system.tsunami.ethernet.postedInterrupts            0                       # number of posts to CPU
system.tsunami.ethernet.droppedPackets              0                       # number of packets dropped
system.switch_cpus0.kern.inst.arm                   0                       # number of arm instructions executed
system.switch_cpus0.kern.inst.quiesce               0                       # number of quiesce instructions executed
system.switch_cpus0.kern.inst.hwrei                 0                       # number of hwrei instructions executed
system.switch_cpus0.kern.mode_switch::kernel            0                       # number of protection mode switches
system.switch_cpus0.kern.mode_switch::user            0                       # number of protection mode switches
system.switch_cpus0.kern.mode_switch::idle            0                       # number of protection mode switches
system.switch_cpus0.kern.mode_good::kernel            0                      
system.switch_cpus0.kern.mode_good::user            0                      
system.switch_cpus0.kern.mode_good::idle            0                      
system.switch_cpus0.kern.mode_switch_good::kernel          nan                       # fraction of useful protection mode switches
system.switch_cpus0.kern.mode_switch_good::user          nan                       # fraction of useful protection mode switches
system.switch_cpus0.kern.mode_switch_good::idle          nan                       # fraction of useful protection mode switches
system.switch_cpus0.kern.mode_switch_good::total          nan                       # fraction of useful protection mode switches
system.switch_cpus0.kern.mode_ticks::kernel            0                       # number of ticks spent at the given mode
system.switch_cpus0.kern.mode_ticks::user            0                       # number of ticks spent at the given mode
system.switch_cpus0.kern.mode_ticks::idle            0                       # number of ticks spent at the given mode
system.switch_cpus0.kern.swap_context               0                       # number of times the context was actually changed
system.switch_cpus1.kern.inst.arm                   0                       # number of arm instructions executed
system.switch_cpus1.kern.inst.quiesce               0                       # number of quiesce instructions executed
system.switch_cpus1.kern.inst.hwrei                 0                       # number of hwrei instructions executed
system.switch_cpus1.kern.mode_switch::kernel            0                       # number of protection mode switches
system.switch_cpus1.kern.mode_switch::user            0                       # number of protection mode switches
system.switch_cpus1.kern.mode_switch::idle            0                       # number of protection mode switches
system.switch_cpus1.kern.mode_good::kernel            0                      
system.switch_cpus1.kern.mode_good::user            0                      
system.switch_cpus1.kern.mode_good::idle            0                      
system.switch_cpus1.kern.mode_switch_good::kernel          nan                       # fraction of useful protection mode switches
system.switch_cpus1.kern.mode_switch_good::user          nan                       # fraction of useful protection mode switches
system.switch_cpus1.kern.mode_switch_good::idle          nan                       # fraction of useful protection mode switches
system.switch_cpus1.kern.mode_switch_good::total          nan                       # fraction of useful protection mode switches
system.switch_cpus1.kern.mode_ticks::kernel            0                       # number of ticks spent at the given mode
system.switch_cpus1.kern.mode_ticks::user            0                       # number of ticks spent at the given mode
system.switch_cpus1.kern.mode_ticks::idle            0                       # number of ticks spent at the given mode
system.switch_cpus1.kern.swap_context               0                       # number of times the context was actually changed
system.switch_cpus2.kern.inst.arm                   0                       # number of arm instructions executed
system.switch_cpus2.kern.inst.quiesce               0                       # number of quiesce instructions executed
system.switch_cpus2.kern.inst.hwrei                 0                       # number of hwrei instructions executed
system.switch_cpus2.kern.mode_switch::kernel            0                       # number of protection mode switches
system.switch_cpus2.kern.mode_switch::user            0                       # number of protection mode switches
system.switch_cpus2.kern.mode_switch::idle            0                       # number of protection mode switches
system.switch_cpus2.kern.mode_good::kernel            0                      
system.switch_cpus2.kern.mode_good::user            0                      
system.switch_cpus2.kern.mode_good::idle            0                      
system.switch_cpus2.kern.mode_switch_good::kernel          nan                       # fraction of useful protection mode switches
system.switch_cpus2.kern.mode_switch_good::user          nan                       # fraction of useful protection mode switches
system.switch_cpus2.kern.mode_switch_good::idle          nan                       # fraction of useful protection mode switches
system.switch_cpus2.kern.mode_switch_good::total          nan                       # fraction of useful protection mode switches
system.switch_cpus2.kern.mode_ticks::kernel            0                       # number of ticks spent at the given mode
system.switch_cpus2.kern.mode_ticks::user            0                       # number of ticks spent at the given mode
system.switch_cpus2.kern.mode_ticks::idle            0                       # number of ticks spent at the given mode
system.switch_cpus2.kern.swap_context               0                       # number of times the context was actually changed
system.switch_cpus3.kern.inst.arm                   0                       # number of arm instructions executed
system.switch_cpus3.kern.inst.quiesce               0                       # number of quiesce instructions executed
system.switch_cpus3.kern.inst.hwrei                 0                       # number of hwrei instructions executed
system.switch_cpus3.kern.mode_switch::kernel            0                       # number of protection mode switches
system.switch_cpus3.kern.mode_switch::user            0                       # number of protection mode switches
system.switch_cpus3.kern.mode_switch::idle            0                       # number of protection mode switches
system.switch_cpus3.kern.mode_good::kernel            0                      
system.switch_cpus3.kern.mode_good::user            0                      
system.switch_cpus3.kern.mode_good::idle            0                      
system.switch_cpus3.kern.mode_switch_good::kernel          nan                       # fraction of useful protection mode switches
system.switch_cpus3.kern.mode_switch_good::user          nan                       # fraction of useful protection mode switches
system.switch_cpus3.kern.mode_switch_good::idle          nan                       # fraction of useful protection mode switches
system.switch_cpus3.kern.mode_switch_good::total          nan                       # fraction of useful protection mode switches
system.switch_cpus3.kern.mode_ticks::kernel            0                       # number of ticks spent at the given mode
system.switch_cpus3.kern.mode_ticks::user            0                       # number of ticks spent at the given mode
system.switch_cpus3.kern.mode_ticks::idle            0                       # number of ticks spent at the given mode
system.switch_cpus3.kern.swap_context               0                       # number of times the context was actually changed

---------- End Simulation Statistics   ----------
