
---------- Begin Simulation Statistics ----------
sim_seconds                                  0.000665                       # Number of seconds simulated
sim_ticks                                   665252000                       # Number of ticks simulated
final_tick                               2255106736500                       # Number of ticks from beginning of simulation (restored from checkpoints and never reset)
sim_freq                                 1000000000000                       # Frequency of simulated ticks
host_inst_rate                               38312576                       # Simulator instruction rate (inst/s)
host_op_rate                                 38312471                       # Simulator op (including micro ops) rate (op/s)
host_tick_rate                              260110597                       # Simulator tick rate (ticks/s)
host_mem_usage                                 736364                       # Number of bytes of host memory used
host_seconds                                     2.56                       # Real time elapsed on the host
sim_insts                                    97986726                       # Number of instructions simulated
sim_ops                                      97986726                       # Number of ops (including micro ops) simulated
system.voltage_domain.voltage                       1                       # Voltage in Volts
system.clk_domain.clock                          1000                       # Clock period in ticks
system.mem_ctrls.bytes_read::switch_cpus.inst       111552                       # Number of bytes read from this memory
system.mem_ctrls.bytes_read::switch_cpus.data       227648                       # Number of bytes read from this memory
system.mem_ctrls.bytes_read::total             339200                       # Number of bytes read from this memory
system.mem_ctrls.bytes_inst_read::switch_cpus.inst       111552                       # Number of instructions bytes read from this memory
system.mem_ctrls.bytes_inst_read::total        111552                       # Number of instructions bytes read from this memory
system.mem_ctrls.bytes_written::writebacks       154368                       # Number of bytes written to this memory
system.mem_ctrls.bytes_written::total          154368                       # Number of bytes written to this memory
system.mem_ctrls.num_reads::switch_cpus.inst         1743                       # Number of read requests responded to by this memory
system.mem_ctrls.num_reads::switch_cpus.data         3557                       # Number of read requests responded to by this memory
system.mem_ctrls.num_reads::total                5300                       # Number of read requests responded to by this memory
system.mem_ctrls.num_writes::writebacks          2412                       # Number of write requests responded to by this memory
system.mem_ctrls.num_writes::total               2412                       # Number of write requests responded to by this memory
system.mem_ctrls.bw_read::switch_cpus.inst    167683825                       # Total read bandwidth from this memory (bytes/s)
system.mem_ctrls.bw_read::switch_cpus.data    342198144                       # Total read bandwidth from this memory (bytes/s)
system.mem_ctrls.bw_read::total             509881970                       # Total read bandwidth from this memory (bytes/s)
system.mem_ctrls.bw_inst_read::switch_cpus.inst    167683825                       # Instruction read bandwidth from this memory (bytes/s)
system.mem_ctrls.bw_inst_read::total        167683825                       # Instruction read bandwidth from this memory (bytes/s)
system.mem_ctrls.bw_write::writebacks       232044398                       # Write bandwidth from this memory (bytes/s)
system.mem_ctrls.bw_write::total            232044398                       # Write bandwidth from this memory (bytes/s)
system.mem_ctrls.bw_total::writebacks       232044398                       # Total bandwidth to/from this memory (bytes/s)
system.mem_ctrls.bw_total::switch_cpus.inst    167683825                       # Total bandwidth to/from this memory (bytes/s)
system.mem_ctrls.bw_total::switch_cpus.data    342198144                       # Total bandwidth to/from this memory (bytes/s)
system.mem_ctrls.bw_total::total            741926368                       # Total bandwidth to/from this memory (bytes/s)
system.mem_ctrls.readReqs                        5300                       # Number of read requests accepted
system.mem_ctrls.writeReqs                       2412                       # Number of write requests accepted
system.mem_ctrls.readBursts                      5300                       # Number of DRAM read bursts, including those serviced by the write queue
system.mem_ctrls.writeBursts                     2412                       # Number of DRAM write bursts, including those merged in the write queue
system.mem_ctrls.bytesReadDRAM                 336960                       # Total number of bytes read from DRAM
system.mem_ctrls.bytesReadWrQ                    2240                       # Total number of bytes read from write queue
system.mem_ctrls.bytesWritten                  153024                       # Total number of bytes written to DRAM
system.mem_ctrls.bytesReadSys                  339200                       # Total read bytes from the system interface side
system.mem_ctrls.bytesWrittenSys               154368                       # Total written bytes from the system interface side
system.mem_ctrls.servicedByWrQ                     35                       # Number of DRAM read bursts serviced by the write queue
system.mem_ctrls.mergedWrBursts                     0                       # Number of DRAM write bursts merged with an existing one
system.mem_ctrls.neitherReadNorWriteReqs            0                       # Number of requests that are neither read nor write
system.mem_ctrls.perBankRdBursts::0               517                       # Per bank write bursts
system.mem_ctrls.perBankRdBursts::1               176                       # Per bank write bursts
system.mem_ctrls.perBankRdBursts::2               282                       # Per bank write bursts
system.mem_ctrls.perBankRdBursts::3               451                       # Per bank write bursts
system.mem_ctrls.perBankRdBursts::4               112                       # Per bank write bursts
system.mem_ctrls.perBankRdBursts::5               475                       # Per bank write bursts
system.mem_ctrls.perBankRdBursts::6               208                       # Per bank write bursts
system.mem_ctrls.perBankRdBursts::7               293                       # Per bank write bursts
system.mem_ctrls.perBankRdBursts::8               407                       # Per bank write bursts
system.mem_ctrls.perBankRdBursts::9               216                       # Per bank write bursts
system.mem_ctrls.perBankRdBursts::10              381                       # Per bank write bursts
system.mem_ctrls.perBankRdBursts::11              615                       # Per bank write bursts
system.mem_ctrls.perBankRdBursts::12              145                       # Per bank write bursts
system.mem_ctrls.perBankRdBursts::13              567                       # Per bank write bursts
system.mem_ctrls.perBankRdBursts::14              221                       # Per bank write bursts
system.mem_ctrls.perBankRdBursts::15              199                       # Per bank write bursts
system.mem_ctrls.perBankWrBursts::0               111                       # Per bank write bursts
system.mem_ctrls.perBankWrBursts::1                75                       # Per bank write bursts
system.mem_ctrls.perBankWrBursts::2               145                       # Per bank write bursts
system.mem_ctrls.perBankWrBursts::3               425                       # Per bank write bursts
system.mem_ctrls.perBankWrBursts::4                50                       # Per bank write bursts
system.mem_ctrls.perBankWrBursts::5               424                       # Per bank write bursts
system.mem_ctrls.perBankWrBursts::6                97                       # Per bank write bursts
system.mem_ctrls.perBankWrBursts::7               138                       # Per bank write bursts
system.mem_ctrls.perBankWrBursts::8               252                       # Per bank write bursts
system.mem_ctrls.perBankWrBursts::9                83                       # Per bank write bursts
system.mem_ctrls.perBankWrBursts::10              150                       # Per bank write bursts
system.mem_ctrls.perBankWrBursts::11              124                       # Per bank write bursts
system.mem_ctrls.perBankWrBursts::12               32                       # Per bank write bursts
system.mem_ctrls.perBankWrBursts::13              137                       # Per bank write bursts
system.mem_ctrls.perBankWrBursts::14               66                       # Per bank write bursts
system.mem_ctrls.perBankWrBursts::15               82                       # Per bank write bursts
system.mem_ctrls.numRdRetry                         0                       # Number of times read queue was full causing retry
system.mem_ctrls.numWrRetry                         0                       # Number of times write queue was full causing retry
system.mem_ctrls.totGap                     663011500                       # Total gap between requests
system.mem_ctrls.readPktSize::0                     0                       # Read request sizes (log2)
system.mem_ctrls.readPktSize::1                     0                       # Read request sizes (log2)
system.mem_ctrls.readPktSize::2                     0                       # Read request sizes (log2)
system.mem_ctrls.readPktSize::3                     0                       # Read request sizes (log2)
system.mem_ctrls.readPktSize::4                     0                       # Read request sizes (log2)
system.mem_ctrls.readPktSize::5                     0                       # Read request sizes (log2)
system.mem_ctrls.readPktSize::6                  5300                       # Read request sizes (log2)
system.mem_ctrls.writePktSize::0                    0                       # Write request sizes (log2)
system.mem_ctrls.writePktSize::1                    0                       # Write request sizes (log2)
system.mem_ctrls.writePktSize::2                    0                       # Write request sizes (log2)
system.mem_ctrls.writePktSize::3                    0                       # Write request sizes (log2)
system.mem_ctrls.writePktSize::4                    0                       # Write request sizes (log2)
system.mem_ctrls.writePktSize::5                    0                       # Write request sizes (log2)
system.mem_ctrls.writePktSize::6                 2412                       # Write request sizes (log2)
system.mem_ctrls.rdQLenPdf::0                    3256                       # What read queue length does an incoming req see
system.mem_ctrls.rdQLenPdf::1                    1255                       # What read queue length does an incoming req see
system.mem_ctrls.rdQLenPdf::2                     524                       # What read queue length does an incoming req see
system.mem_ctrls.rdQLenPdf::3                     230                       # What read queue length does an incoming req see
system.mem_ctrls.rdQLenPdf::4                       0                       # What read queue length does an incoming req see
system.mem_ctrls.rdQLenPdf::5                       0                       # What read queue length does an incoming req see
system.mem_ctrls.rdQLenPdf::6                       0                       # What read queue length does an incoming req see
system.mem_ctrls.rdQLenPdf::7                       0                       # What read queue length does an incoming req see
system.mem_ctrls.rdQLenPdf::8                       0                       # What read queue length does an incoming req see
system.mem_ctrls.rdQLenPdf::9                       0                       # What read queue length does an incoming req see
system.mem_ctrls.rdQLenPdf::10                      0                       # What read queue length does an incoming req see
system.mem_ctrls.rdQLenPdf::11                      0                       # What read queue length does an incoming req see
system.mem_ctrls.rdQLenPdf::12                      0                       # What read queue length does an incoming req see
system.mem_ctrls.rdQLenPdf::13                      0                       # What read queue length does an incoming req see
system.mem_ctrls.rdQLenPdf::14                      0                       # What read queue length does an incoming req see
system.mem_ctrls.rdQLenPdf::15                      0                       # What read queue length does an incoming req see
system.mem_ctrls.rdQLenPdf::16                      0                       # What read queue length does an incoming req see
system.mem_ctrls.rdQLenPdf::17                      0                       # What read queue length does an incoming req see
system.mem_ctrls.rdQLenPdf::18                      0                       # What read queue length does an incoming req see
system.mem_ctrls.rdQLenPdf::19                      0                       # What read queue length does an incoming req see
system.mem_ctrls.rdQLenPdf::20                      0                       # What read queue length does an incoming req see
system.mem_ctrls.rdQLenPdf::21                      0                       # What read queue length does an incoming req see
system.mem_ctrls.rdQLenPdf::22                      0                       # What read queue length does an incoming req see
system.mem_ctrls.rdQLenPdf::23                      0                       # What read queue length does an incoming req see
system.mem_ctrls.rdQLenPdf::24                      0                       # What read queue length does an incoming req see
system.mem_ctrls.rdQLenPdf::25                      0                       # What read queue length does an incoming req see
system.mem_ctrls.rdQLenPdf::26                      0                       # What read queue length does an incoming req see
system.mem_ctrls.rdQLenPdf::27                      0                       # What read queue length does an incoming req see
system.mem_ctrls.rdQLenPdf::28                      0                       # What read queue length does an incoming req see
system.mem_ctrls.rdQLenPdf::29                      0                       # What read queue length does an incoming req see
system.mem_ctrls.rdQLenPdf::30                      0                       # What read queue length does an incoming req see
system.mem_ctrls.rdQLenPdf::31                      0                       # What read queue length does an incoming req see
system.mem_ctrls.wrQLenPdf::0                       1                       # What write queue length does an incoming req see
system.mem_ctrls.wrQLenPdf::1                       1                       # What write queue length does an incoming req see
system.mem_ctrls.wrQLenPdf::2                       1                       # What write queue length does an incoming req see
system.mem_ctrls.wrQLenPdf::3                       1                       # What write queue length does an incoming req see
system.mem_ctrls.wrQLenPdf::4                       1                       # What write queue length does an incoming req see
system.mem_ctrls.wrQLenPdf::5                       1                       # What write queue length does an incoming req see
system.mem_ctrls.wrQLenPdf::6                       1                       # What write queue length does an incoming req see
system.mem_ctrls.wrQLenPdf::7                       1                       # What write queue length does an incoming req see
system.mem_ctrls.wrQLenPdf::8                       1                       # What write queue length does an incoming req see
system.mem_ctrls.wrQLenPdf::9                       1                       # What write queue length does an incoming req see
system.mem_ctrls.wrQLenPdf::10                      1                       # What write queue length does an incoming req see
system.mem_ctrls.wrQLenPdf::11                      1                       # What write queue length does an incoming req see
system.mem_ctrls.wrQLenPdf::12                      1                       # What write queue length does an incoming req see
system.mem_ctrls.wrQLenPdf::13                      1                       # What write queue length does an incoming req see
system.mem_ctrls.wrQLenPdf::14                      1                       # What write queue length does an incoming req see
system.mem_ctrls.wrQLenPdf::15                     36                       # What write queue length does an incoming req see
system.mem_ctrls.wrQLenPdf::16                     39                       # What write queue length does an incoming req see
system.mem_ctrls.wrQLenPdf::17                    100                       # What write queue length does an incoming req see
system.mem_ctrls.wrQLenPdf::18                    127                       # What write queue length does an incoming req see
system.mem_ctrls.wrQLenPdf::19                    143                       # What write queue length does an incoming req see
system.mem_ctrls.wrQLenPdf::20                    146                       # What write queue length does an incoming req see
system.mem_ctrls.wrQLenPdf::21                    151                       # What write queue length does an incoming req see
system.mem_ctrls.wrQLenPdf::22                    152                       # What write queue length does an incoming req see
system.mem_ctrls.wrQLenPdf::23                    149                       # What write queue length does an incoming req see
system.mem_ctrls.wrQLenPdf::24                    145                       # What write queue length does an incoming req see
system.mem_ctrls.wrQLenPdf::25                    152                       # What write queue length does an incoming req see
system.mem_ctrls.wrQLenPdf::26                    161                       # What write queue length does an incoming req see
system.mem_ctrls.wrQLenPdf::27                    152                       # What write queue length does an incoming req see
system.mem_ctrls.wrQLenPdf::28                    152                       # What write queue length does an incoming req see
system.mem_ctrls.wrQLenPdf::29                    159                       # What write queue length does an incoming req see
system.mem_ctrls.wrQLenPdf::30                    145                       # What write queue length does an incoming req see
system.mem_ctrls.wrQLenPdf::31                    144                       # What write queue length does an incoming req see
system.mem_ctrls.wrQLenPdf::32                    144                       # What write queue length does an incoming req see
system.mem_ctrls.wrQLenPdf::33                      0                       # What write queue length does an incoming req see
system.mem_ctrls.wrQLenPdf::34                      0                       # What write queue length does an incoming req see
system.mem_ctrls.wrQLenPdf::35                      0                       # What write queue length does an incoming req see
system.mem_ctrls.wrQLenPdf::36                      0                       # What write queue length does an incoming req see
system.mem_ctrls.wrQLenPdf::37                      0                       # What write queue length does an incoming req see
system.mem_ctrls.wrQLenPdf::38                      0                       # What write queue length does an incoming req see
system.mem_ctrls.wrQLenPdf::39                      0                       # What write queue length does an incoming req see
system.mem_ctrls.wrQLenPdf::40                      0                       # What write queue length does an incoming req see
system.mem_ctrls.wrQLenPdf::41                      0                       # What write queue length does an incoming req see
system.mem_ctrls.wrQLenPdf::42                      0                       # What write queue length does an incoming req see
system.mem_ctrls.wrQLenPdf::43                      0                       # What write queue length does an incoming req see
system.mem_ctrls.wrQLenPdf::44                      0                       # What write queue length does an incoming req see
system.mem_ctrls.wrQLenPdf::45                      0                       # What write queue length does an incoming req see
system.mem_ctrls.wrQLenPdf::46                      0                       # What write queue length does an incoming req see
system.mem_ctrls.wrQLenPdf::47                      0                       # What write queue length does an incoming req see
system.mem_ctrls.wrQLenPdf::48                      0                       # What write queue length does an incoming req see
system.mem_ctrls.wrQLenPdf::49                      0                       # What write queue length does an incoming req see
system.mem_ctrls.wrQLenPdf::50                      0                       # What write queue length does an incoming req see
system.mem_ctrls.wrQLenPdf::51                      0                       # What write queue length does an incoming req see
system.mem_ctrls.wrQLenPdf::52                      0                       # What write queue length does an incoming req see
system.mem_ctrls.wrQLenPdf::53                      0                       # What write queue length does an incoming req see
system.mem_ctrls.wrQLenPdf::54                      0                       # What write queue length does an incoming req see
system.mem_ctrls.wrQLenPdf::55                      0                       # What write queue length does an incoming req see
system.mem_ctrls.wrQLenPdf::56                      0                       # What write queue length does an incoming req see
system.mem_ctrls.wrQLenPdf::57                      0                       # What write queue length does an incoming req see
system.mem_ctrls.wrQLenPdf::58                      0                       # What write queue length does an incoming req see
system.mem_ctrls.wrQLenPdf::59                      0                       # What write queue length does an incoming req see
system.mem_ctrls.wrQLenPdf::60                      0                       # What write queue length does an incoming req see
system.mem_ctrls.wrQLenPdf::61                      0                       # What write queue length does an incoming req see
system.mem_ctrls.wrQLenPdf::62                      0                       # What write queue length does an incoming req see
system.mem_ctrls.wrQLenPdf::63                      0                       # What write queue length does an incoming req see
system.mem_ctrls.bytesPerActivate::samples         2040                       # Bytes accessed per row activation
system.mem_ctrls.bytesPerActivate::mean    240.125490                       # Bytes accessed per row activation
system.mem_ctrls.bytesPerActivate::gmean   145.685339                       # Bytes accessed per row activation
system.mem_ctrls.bytesPerActivate::stdev   280.067280                       # Bytes accessed per row activation
system.mem_ctrls.bytesPerActivate::0-127          939     46.03%     46.03% # Bytes accessed per row activation
system.mem_ctrls.bytesPerActivate::128-255          498     24.41%     70.44% # Bytes accessed per row activation
system.mem_ctrls.bytesPerActivate::256-383          197      9.66%     80.10% # Bytes accessed per row activation
system.mem_ctrls.bytesPerActivate::384-511           99      4.85%     84.95% # Bytes accessed per row activation
system.mem_ctrls.bytesPerActivate::512-639           76      3.73%     88.68% # Bytes accessed per row activation
system.mem_ctrls.bytesPerActivate::640-767           39      1.91%     90.59% # Bytes accessed per row activation
system.mem_ctrls.bytesPerActivate::768-895           17      0.83%     91.42% # Bytes accessed per row activation
system.mem_ctrls.bytesPerActivate::896-1023           29      1.42%     92.84% # Bytes accessed per row activation
system.mem_ctrls.bytesPerActivate::1024-1151          146      7.16%    100.00% # Bytes accessed per row activation
system.mem_ctrls.bytesPerActivate::total         2040                       # Bytes accessed per row activation
system.mem_ctrls.rdPerTurnAround::samples          144                       # Reads before turning the bus around for writes
system.mem_ctrls.rdPerTurnAround::mean      36.493056                       # Reads before turning the bus around for writes
system.mem_ctrls.rdPerTurnAround::gmean     31.097662                       # Reads before turning the bus around for writes
system.mem_ctrls.rdPerTurnAround::stdev     23.972594                       # Reads before turning the bus around for writes
system.mem_ctrls.rdPerTurnAround::8-15              7      4.86%      4.86% # Reads before turning the bus around for writes
system.mem_ctrls.rdPerTurnAround::16-23            46     31.94%     36.81% # Reads before turning the bus around for writes
system.mem_ctrls.rdPerTurnAround::24-31            25     17.36%     54.17% # Reads before turning the bus around for writes
system.mem_ctrls.rdPerTurnAround::32-39            20     13.89%     68.06% # Reads before turning the bus around for writes
system.mem_ctrls.rdPerTurnAround::40-47            14      9.72%     77.78% # Reads before turning the bus around for writes
system.mem_ctrls.rdPerTurnAround::48-55            12      8.33%     86.11% # Reads before turning the bus around for writes
system.mem_ctrls.rdPerTurnAround::56-63             6      4.17%     90.28% # Reads before turning the bus around for writes
system.mem_ctrls.rdPerTurnAround::64-71             4      2.78%     93.06% # Reads before turning the bus around for writes
system.mem_ctrls.rdPerTurnAround::72-79             2      1.39%     94.44% # Reads before turning the bus around for writes
system.mem_ctrls.rdPerTurnAround::80-87             2      1.39%     95.83% # Reads before turning the bus around for writes
system.mem_ctrls.rdPerTurnAround::96-103            2      1.39%     97.22% # Reads before turning the bus around for writes
system.mem_ctrls.rdPerTurnAround::120-127            1      0.69%     97.92% # Reads before turning the bus around for writes
system.mem_ctrls.rdPerTurnAround::128-135            2      1.39%     99.31% # Reads before turning the bus around for writes
system.mem_ctrls.rdPerTurnAround::136-143            1      0.69%    100.00% # Reads before turning the bus around for writes
system.mem_ctrls.rdPerTurnAround::total           144                       # Reads before turning the bus around for writes
system.mem_ctrls.wrPerTurnAround::samples          144                       # Writes before turning the bus around for reads
system.mem_ctrls.wrPerTurnAround::mean      16.604167                       # Writes before turning the bus around for reads
system.mem_ctrls.wrPerTurnAround::gmean     16.573860                       # Writes before turning the bus around for reads
system.mem_ctrls.wrPerTurnAround::stdev      1.032471                       # Writes before turning the bus around for reads
system.mem_ctrls.wrPerTurnAround::16              105     72.92%     72.92% # Writes before turning the bus around for reads
system.mem_ctrls.wrPerTurnAround::17                1      0.69%     73.61% # Writes before turning the bus around for reads
system.mem_ctrls.wrPerTurnAround::18               29     20.14%     93.75% # Writes before turning the bus around for reads
system.mem_ctrls.wrPerTurnAround::19                8      5.56%     99.31% # Writes before turning the bus around for reads
system.mem_ctrls.wrPerTurnAround::20                1      0.69%    100.00% # Writes before turning the bus around for reads
system.mem_ctrls.wrPerTurnAround::total           144                       # Writes before turning the bus around for reads
system.mem_ctrls.totQLat                     74196750                       # Total ticks spent queuing
system.mem_ctrls.totMemAccLat               172915500                       # Total ticks spent from burst creation until serviced by the DRAM
system.mem_ctrls.totBusLat                   26325000                       # Total ticks spent in databus transfers
system.mem_ctrls.avgQLat                     14092.45                       # Average queueing delay per DRAM burst
system.mem_ctrls.avgBusLat                    5000.00                       # Average bus latency per DRAM burst
system.mem_ctrls.avgMemAccLat                32842.45                       # Average memory access latency per DRAM burst
system.mem_ctrls.avgRdBW                       506.51                       # Average DRAM read bandwidth in MiByte/s
system.mem_ctrls.avgWrBW                       230.02                       # Average achieved write bandwidth in MiByte/s
system.mem_ctrls.avgRdBWSys                    509.88                       # Average system read bandwidth in MiByte/s
system.mem_ctrls.avgWrBWSys                    232.04                       # Average system write bandwidth in MiByte/s
system.mem_ctrls.peakBW                      12800.00                       # Theoretical peak bandwidth in MiByte/s
system.mem_ctrls.busUtil                         5.75                       # Data bus utilization in percentage
system.mem_ctrls.busUtilRead                     3.96                       # Data bus utilization in percentage for reads
system.mem_ctrls.busUtilWrite                    1.80                       # Data bus utilization in percentage for writes
system.mem_ctrls.avgRdQLen                       1.39                       # Average read queue length when enqueuing
system.mem_ctrls.avgWrQLen                      24.84                       # Average write queue length when enqueuing
system.mem_ctrls.readRowHits                     4034                       # Number of row buffer hits during reads
system.mem_ctrls.writeRowHits                    1580                       # Number of row buffer hits during writes
system.mem_ctrls.readRowHitRate                 76.62                       # Row buffer hit rate for reads
system.mem_ctrls.writeRowHitRate                65.51                       # Row buffer hit rate for writes
system.mem_ctrls.avgGap                      85971.41                       # Average gap between requests
system.mem_ctrls.pageHitRate                    73.13                       # Row buffer hit rate, read and write combined
system.mem_ctrls_0.actEnergy                  7680960                       # Energy for activate commands per rank (pJ)
system.mem_ctrls_0.preEnergy                  4191000                       # Energy for precharge commands per rank (pJ)
system.mem_ctrls_0.readEnergy                19601400                       # Energy for read commands per rank (pJ)
system.mem_ctrls_0.writeEnergy                9493200                       # Energy for write commands per rank (pJ)
system.mem_ctrls_0.refreshEnergy             43227600                       # Energy for refresh commands per rank (pJ)
system.mem_ctrls_0.actBackEnergy            370652760                       # Energy for active background per rank (pJ)
system.mem_ctrls_0.preBackEnergy             72120750                       # Energy for precharge background per rank (pJ)
system.mem_ctrls_0.totalEnergy              526967670                       # Total energy per rank (pJ)
system.mem_ctrls_0.averagePower            795.913962                       # Core power per rank (mW)
system.mem_ctrls_0.memoryStateTime::IDLE    118671000                       # Time in different power states
system.mem_ctrls_0.memoryStateTime::REF      22100000                       # Time in different power states
system.mem_ctrls_0.memoryStateTime::PRE_PDN            0                       # Time in different power states
system.mem_ctrls_0.memoryStateTime::ACT     522264000                       # Time in different power states
system.mem_ctrls_0.memoryStateTime::ACT_PDN            0                       # Time in different power states
system.mem_ctrls_1.actEnergy                  7741440                       # Energy for activate commands per rank (pJ)
system.mem_ctrls_1.preEnergy                  4224000                       # Energy for precharge commands per rank (pJ)
system.mem_ctrls_1.readEnergy                21450000                       # Energy for read commands per rank (pJ)
system.mem_ctrls_1.writeEnergy                6000480                       # Energy for write commands per rank (pJ)
system.mem_ctrls_1.refreshEnergy             43227600                       # Energy for refresh commands per rank (pJ)
system.mem_ctrls_1.actBackEnergy            402175755                       # Energy for active background per rank (pJ)
system.mem_ctrls_1.preBackEnergy             44469000                       # Energy for precharge background per rank (pJ)
system.mem_ctrls_1.totalEnergy              529288275                       # Total energy per rank (pJ)
system.mem_ctrls_1.averagePower            799.418925                       # Core power per rank (mW)
system.mem_ctrls_1.memoryStateTime::IDLE     72226750                       # Time in different power states
system.mem_ctrls_1.memoryStateTime::REF      22100000                       # Time in different power states
system.mem_ctrls_1.memoryStateTime::PRE_PDN            0                       # Time in different power states
system.mem_ctrls_1.memoryStateTime::ACT     568535750                       # Time in different power states
system.mem_ctrls_1.memoryStateTime::ACT_PDN            0                       # Time in different power states
system.cpu_voltage_domain.voltage                   1                       # Voltage in Volts
system.cpu_clk_domain.clock                       500                       # Clock period in ticks
system.cpu.dtb.fetch_hits                           0                       # ITB hits
system.cpu.dtb.fetch_misses                         0                       # ITB misses
system.cpu.dtb.fetch_acv                            0                       # ITB acv
system.cpu.dtb.fetch_accesses                       0                       # ITB accesses
system.cpu.dtb.read_hits                            0                       # DTB read hits
system.cpu.dtb.read_misses                          0                       # DTB read misses
system.cpu.dtb.read_acv                             0                       # DTB read access violations
system.cpu.dtb.read_accesses                        0                       # DTB read accesses
system.cpu.dtb.write_hits                           0                       # DTB write hits
system.cpu.dtb.write_misses                         0                       # DTB write misses
system.cpu.dtb.write_acv                            0                       # DTB write access violations
system.cpu.dtb.write_accesses                       0                       # DTB write accesses
system.cpu.dtb.data_hits                            0                       # DTB hits
system.cpu.dtb.data_misses                          0                       # DTB misses
system.cpu.dtb.data_acv                             0                       # DTB access violations
system.cpu.dtb.data_accesses                        0                       # DTB accesses
system.cpu.itb.fetch_hits                           0                       # ITB hits
system.cpu.itb.fetch_misses                         0                       # ITB misses
system.cpu.itb.fetch_acv                            0                       # ITB acv
system.cpu.itb.fetch_accesses                       0                       # ITB accesses
system.cpu.itb.read_hits                            0                       # DTB read hits
system.cpu.itb.read_misses                          0                       # DTB read misses
system.cpu.itb.read_acv                             0                       # DTB read access violations
system.cpu.itb.read_accesses                        0                       # DTB read accesses
system.cpu.itb.write_hits                           0                       # DTB write hits
system.cpu.itb.write_misses                         0                       # DTB write misses
system.cpu.itb.write_acv                            0                       # DTB write access violations
system.cpu.itb.write_accesses                       0                       # DTB write accesses
system.cpu.itb.data_hits                            0                       # DTB hits
system.cpu.itb.data_misses                          0                       # DTB misses
system.cpu.itb.data_acv                             0                       # DTB access violations
system.cpu.itb.data_accesses                        0                       # DTB accesses
system.cpu.numCycles                                0                       # number of cpu cycles simulated
system.cpu.numWorkItemsStarted                      0                       # number of work items this cpu started
system.cpu.numWorkItemsCompleted                    0                       # number of work items this cpu completed
system.cpu.committedInsts                           0                       # Number of instructions committed
system.cpu.committedOps                             0                       # Number of ops (including micro ops) committed
system.cpu.num_int_alu_accesses                     0                       # Number of integer alu accesses
system.cpu.num_fp_alu_accesses                      0                       # Number of float alu accesses
system.cpu.num_func_calls                           0                       # number of times a function call or return occured
system.cpu.num_conditional_control_insts            0                       # number of instructions that are conditional controls
system.cpu.num_int_insts                            0                       # number of integer instructions
system.cpu.num_fp_insts                             0                       # number of float instructions
system.cpu.num_int_register_reads                   0                       # number of times the integer registers were read
system.cpu.num_int_register_writes                  0                       # number of times the integer registers were written
system.cpu.num_fp_register_reads                    0                       # number of times the floating registers were read
system.cpu.num_fp_register_writes                   0                       # number of times the floating registers were written
system.cpu.num_mem_refs                             0                       # number of memory refs
system.cpu.num_load_insts                           0                       # Number of load instructions
system.cpu.num_store_insts                          0                       # Number of store instructions
system.cpu.num_idle_cycles                          0                       # Number of idle cycles
system.cpu.num_busy_cycles                          0                       # Number of busy cycles
system.cpu.not_idle_fraction                        1                       # Percentage of non-idle cycles
system.cpu.idle_fraction                            0                       # Percentage of idle cycles
system.cpu.op_class::No_OpClass                     0                       # Class of executed instruction
system.cpu.op_class::IntAlu                         0                       # Class of executed instruction
system.cpu.op_class::IntMult                        0                       # Class of executed instruction
system.cpu.op_class::IntDiv                         0                       # Class of executed instruction
system.cpu.op_class::FloatAdd                       0                       # Class of executed instruction
system.cpu.op_class::FloatCmp                       0                       # Class of executed instruction
system.cpu.op_class::FloatCvt                       0                       # Class of executed instruction
system.cpu.op_class::FloatMult                      0                       # Class of executed instruction
system.cpu.op_class::FloatDiv                       0                       # Class of executed instruction
system.cpu.op_class::FloatSqrt                      0                       # Class of executed instruction
system.cpu.op_class::SimdAdd                        0                       # Class of executed instruction
system.cpu.op_class::SimdAddAcc                     0                       # Class of executed instruction
system.cpu.op_class::SimdAlu                        0                       # Class of executed instruction
system.cpu.op_class::SimdCmp                        0                       # Class of executed instruction
system.cpu.op_class::SimdCvt                        0                       # Class of executed instruction
system.cpu.op_class::SimdMisc                       0                       # Class of executed instruction
system.cpu.op_class::SimdMult                       0                       # Class of executed instruction
system.cpu.op_class::SimdMultAcc                    0                       # Class of executed instruction
system.cpu.op_class::SimdShift                      0                       # Class of executed instruction
system.cpu.op_class::SimdShiftAcc                   0                       # Class of executed instruction
system.cpu.op_class::SimdSqrt                       0                       # Class of executed instruction
system.cpu.op_class::SimdFloatAdd                   0                       # Class of executed instruction
system.cpu.op_class::SimdFloatAlu                   0                       # Class of executed instruction
system.cpu.op_class::SimdFloatCmp                   0                       # Class of executed instruction
system.cpu.op_class::SimdFloatCvt                   0                       # Class of executed instruction
system.cpu.op_class::SimdFloatDiv                   0                       # Class of executed instruction
system.cpu.op_class::SimdFloatMisc                  0                       # Class of executed instruction
system.cpu.op_class::SimdFloatMult                  0                       # Class of executed instruction
system.cpu.op_class::SimdFloatMultAcc               0                       # Class of executed instruction
system.cpu.op_class::SimdFloatSqrt                  0                       # Class of executed instruction
system.cpu.op_class::MemRead                        0                       # Class of executed instruction
system.cpu.op_class::MemWrite                       0                       # Class of executed instruction
system.cpu.op_class::IprAccess                      0                       # Class of executed instruction
system.cpu.op_class::InstPrefetch                   0                       # Class of executed instruction
system.cpu.op_class::total                          0                       # Class of executed instruction
system.cpu.kern.inst.arm                            0                       # number of arm instructions executed
system.cpu.kern.inst.quiesce                        0                       # number of quiesce instructions executed
system.cpu.kern.inst.hwrei                       2781                       # number of hwrei instructions executed
system.cpu.kern.ipl_count::0                      635     49.15%     49.15% # number of times we switched to this ipl
system.cpu.kern.ipl_count::22                       1      0.08%     49.23% # number of times we switched to this ipl
system.cpu.kern.ipl_count::31                     656     50.77%    100.00% # number of times we switched to this ipl
system.cpu.kern.ipl_count::total                 1292                       # number of times we switched to this ipl
system.cpu.kern.ipl_good::0                       633     49.96%     49.96% # number of times we switched to this ipl from a different ipl
system.cpu.kern.ipl_good::22                        1      0.08%     50.04% # number of times we switched to this ipl from a different ipl
system.cpu.kern.ipl_good::31                      633     49.96%    100.00% # number of times we switched to this ipl from a different ipl
system.cpu.kern.ipl_good::total                  1267                       # number of times we switched to this ipl from a different ipl
system.cpu.kern.ipl_ticks::0                600461500     90.33%     90.33% # number of cycles we spent at this ipl
system.cpu.kern.ipl_ticks::22                 1270500      0.19%     90.52% # number of cycles we spent at this ipl
system.cpu.kern.ipl_ticks::31                63030500      9.48%    100.00% # number of cycles we spent at this ipl
system.cpu.kern.ipl_ticks::total            664762500                       # number of cycles we spent at this ipl
system.cpu.kern.ipl_used::0                  0.996850                       # fraction of swpipl calls that actually changed the ipl
system.cpu.kern.ipl_used::22                        1                       # fraction of swpipl calls that actually changed the ipl
system.cpu.kern.ipl_used::31                 0.964939                       # fraction of swpipl calls that actually changed the ipl
system.cpu.kern.ipl_used::total              0.980650                       # fraction of swpipl calls that actually changed the ipl
system.cpu.kern.syscall::2                          1      5.56%      5.56% # number of syscalls executed
system.cpu.kern.syscall::3                          2     11.11%     16.67% # number of syscalls executed
system.cpu.kern.syscall::6                          2     11.11%     27.78% # number of syscalls executed
system.cpu.kern.syscall::17                         1      5.56%     33.33% # number of syscalls executed
system.cpu.kern.syscall::19                         1      5.56%     38.89% # number of syscalls executed
system.cpu.kern.syscall::33                         1      5.56%     44.44% # number of syscalls executed
system.cpu.kern.syscall::45                         3     16.67%     61.11% # number of syscalls executed
system.cpu.kern.syscall::48                         1      5.56%     66.67% # number of syscalls executed
system.cpu.kern.syscall::59                         1      5.56%     72.22% # number of syscalls executed
system.cpu.kern.syscall::71                         4     22.22%     94.44% # number of syscalls executed
system.cpu.kern.syscall::74                         1      5.56%    100.00% # number of syscalls executed
system.cpu.kern.syscall::total                     18                       # number of syscalls executed
system.cpu.kern.callpal::swpctx                   118      8.10%      8.10% # number of callpals executed
system.cpu.kern.callpal::tbi                        6      0.41%      8.51% # number of callpals executed
system.cpu.kern.callpal::swpipl                  1107     75.98%     84.49% # number of callpals executed
system.cpu.kern.callpal::rdps                       3      0.21%     84.69% # number of callpals executed
system.cpu.kern.callpal::wrusp                      1      0.07%     84.76% # number of callpals executed
system.cpu.kern.callpal::rdusp                      1      0.07%     84.83% # number of callpals executed
system.cpu.kern.callpal::rti                      184     12.63%     97.46% # number of callpals executed
system.cpu.kern.callpal::callsys                   33      2.26%     99.73% # number of callpals executed
system.cpu.kern.callpal::imb                        4      0.27%    100.00% # number of callpals executed
system.cpu.kern.callpal::total                   1457                       # number of callpals executed
system.cpu.kern.mode_switch::kernel               302                       # number of protection mode switches
system.cpu.kern.mode_switch::user                 181                       # number of protection mode switches
system.cpu.kern.mode_switch::idle                   0                       # number of protection mode switches
system.cpu.kern.mode_good::kernel                 181                      
system.cpu.kern.mode_good::user                   181                      
system.cpu.kern.mode_good::idle                     0                      
system.cpu.kern.mode_switch_good::kernel     0.599338                       # fraction of useful protection mode switches
system.cpu.kern.mode_switch_good::user              1                       # fraction of useful protection mode switches
system.cpu.kern.mode_switch_good::idle            nan                       # fraction of useful protection mode switches
system.cpu.kern.mode_switch_good::total      0.749482                       # fraction of useful protection mode switches
system.cpu.kern.mode_ticks::kernel          432607000     65.08%     65.08% # number of ticks spent at the given mode
system.cpu.kern.mode_ticks::user            232148500     34.92%    100.00% # number of ticks spent at the given mode
system.cpu.kern.mode_ticks::idle                    0      0.00%    100.00% # number of ticks spent at the given mode
system.cpu.kern.swap_context                      118                       # number of times the context was actually changed
system.cpu.dcache.tags.replacements             18282                       # number of replacements
system.cpu.dcache.tags.tagsinuse                  512                       # Cycle average of tags in use
system.cpu.dcache.tags.total_refs              199414                       # Total number of references to valid blocks.
system.cpu.dcache.tags.sampled_refs             18282                       # Sample count of references to valid blocks.
system.cpu.dcache.tags.avg_refs             10.907669                       # Average number of references to valid blocks.
system.cpu.dcache.tags.warmup_cycle                 0                       # Cycle when the warmup percentage was hit.
system.cpu.dcache.tags.occ_blocks::cpu.data    25.981561                       # Average occupied blocks per requestor
system.cpu.dcache.tags.occ_blocks::switch_cpus.data   486.018439                       # Average occupied blocks per requestor
system.cpu.dcache.tags.occ_percent::cpu.data     0.050745                       # Average percentage of cache occupancy
system.cpu.dcache.tags.occ_percent::switch_cpus.data     0.949255                       # Average percentage of cache occupancy
system.cpu.dcache.tags.occ_percent::total            1                       # Average percentage of cache occupancy
system.cpu.dcache.tags.occ_task_id_blocks::1024          512                       # Occupied blocks per task id
system.cpu.dcache.tags.age_task_id_blocks_1024::0          351                       # Occupied blocks per task id
system.cpu.dcache.tags.age_task_id_blocks_1024::1          160                       # Occupied blocks per task id
system.cpu.dcache.tags.age_task_id_blocks_1024::2            1                       # Occupied blocks per task id
system.cpu.dcache.tags.occ_task_id_percent::1024            1                       # Percentage of cache occupancy per task id
system.cpu.dcache.tags.tag_accesses           1180278                       # Number of tag accesses
system.cpu.dcache.tags.data_accesses          1180278                       # Number of data accesses
system.cpu.dcache.ReadReq_hits::switch_cpus.data       132869                       # number of ReadReq hits
system.cpu.dcache.ReadReq_hits::total          132869                       # number of ReadReq hits
system.cpu.dcache.WriteReq_hits::switch_cpus.data        59001                       # number of WriteReq hits
system.cpu.dcache.WriteReq_hits::total          59001                       # number of WriteReq hits
system.cpu.dcache.LoadLockedReq_hits::switch_cpus.data         2233                       # number of LoadLockedReq hits
system.cpu.dcache.LoadLockedReq_hits::total         2233                       # number of LoadLockedReq hits
system.cpu.dcache.StoreCondReq_hits::switch_cpus.data         2379                       # number of StoreCondReq hits
system.cpu.dcache.StoreCondReq_hits::total         2379                       # number of StoreCondReq hits
system.cpu.dcache.demand_hits::switch_cpus.data       191870                       # number of demand (read+write) hits
system.cpu.dcache.demand_hits::total           191870                       # number of demand (read+write) hits
system.cpu.dcache.overall_hits::switch_cpus.data       191870                       # number of overall hits
system.cpu.dcache.overall_hits::total          191870                       # number of overall hits
system.cpu.dcache.ReadReq_misses::switch_cpus.data        26381                       # number of ReadReq misses
system.cpu.dcache.ReadReq_misses::total         26381                       # number of ReadReq misses
system.cpu.dcache.WriteReq_misses::switch_cpus.data        67241                       # number of WriteReq misses
system.cpu.dcache.WriteReq_misses::total        67241                       # number of WriteReq misses
system.cpu.dcache.LoadLockedReq_misses::switch_cpus.data          395                       # number of LoadLockedReq misses
system.cpu.dcache.LoadLockedReq_misses::total          395                       # number of LoadLockedReq misses
system.cpu.dcache.demand_misses::switch_cpus.data        93622                       # number of demand (read+write) misses
system.cpu.dcache.demand_misses::total          93622                       # number of demand (read+write) misses
system.cpu.dcache.overall_misses::switch_cpus.data        93622                       # number of overall misses
system.cpu.dcache.overall_misses::total         93622                       # number of overall misses
system.cpu.dcache.ReadReq_miss_latency::switch_cpus.data    686904997                       # number of ReadReq miss cycles
system.cpu.dcache.ReadReq_miss_latency::total    686904997                       # number of ReadReq miss cycles
system.cpu.dcache.WriteReq_miss_latency::switch_cpus.data   1802551296                       # number of WriteReq miss cycles
system.cpu.dcache.WriteReq_miss_latency::total   1802551296                       # number of WriteReq miss cycles
system.cpu.dcache.LoadLockedReq_miss_latency::switch_cpus.data      7025250                       # number of LoadLockedReq miss cycles
system.cpu.dcache.LoadLockedReq_miss_latency::total      7025250                       # number of LoadLockedReq miss cycles
system.cpu.dcache.demand_miss_latency::switch_cpus.data   2489456293                       # number of demand (read+write) miss cycles
system.cpu.dcache.demand_miss_latency::total   2489456293                       # number of demand (read+write) miss cycles
system.cpu.dcache.overall_miss_latency::switch_cpus.data   2489456293                       # number of overall miss cycles
system.cpu.dcache.overall_miss_latency::total   2489456293                       # number of overall miss cycles
system.cpu.dcache.ReadReq_accesses::switch_cpus.data       159250                       # number of ReadReq accesses(hits+misses)
system.cpu.dcache.ReadReq_accesses::total       159250                       # number of ReadReq accesses(hits+misses)
system.cpu.dcache.WriteReq_accesses::switch_cpus.data       126242                       # number of WriteReq accesses(hits+misses)
system.cpu.dcache.WriteReq_accesses::total       126242                       # number of WriteReq accesses(hits+misses)
system.cpu.dcache.LoadLockedReq_accesses::switch_cpus.data         2628                       # number of LoadLockedReq accesses(hits+misses)
system.cpu.dcache.LoadLockedReq_accesses::total         2628                       # number of LoadLockedReq accesses(hits+misses)
system.cpu.dcache.StoreCondReq_accesses::switch_cpus.data         2379                       # number of StoreCondReq accesses(hits+misses)
system.cpu.dcache.StoreCondReq_accesses::total         2379                       # number of StoreCondReq accesses(hits+misses)
system.cpu.dcache.demand_accesses::switch_cpus.data       285492                       # number of demand (read+write) accesses
system.cpu.dcache.demand_accesses::total       285492                       # number of demand (read+write) accesses
system.cpu.dcache.overall_accesses::switch_cpus.data       285492                       # number of overall (read+write) accesses
system.cpu.dcache.overall_accesses::total       285492                       # number of overall (read+write) accesses
system.cpu.dcache.ReadReq_miss_rate::switch_cpus.data     0.165658                       # miss rate for ReadReq accesses
system.cpu.dcache.ReadReq_miss_rate::total     0.165658                       # miss rate for ReadReq accesses
system.cpu.dcache.WriteReq_miss_rate::switch_cpus.data     0.532636                       # miss rate for WriteReq accesses
system.cpu.dcache.WriteReq_miss_rate::total     0.532636                       # miss rate for WriteReq accesses
system.cpu.dcache.LoadLockedReq_miss_rate::switch_cpus.data     0.150304                       # miss rate for LoadLockedReq accesses
system.cpu.dcache.LoadLockedReq_miss_rate::total     0.150304                       # miss rate for LoadLockedReq accesses
system.cpu.dcache.demand_miss_rate::switch_cpus.data     0.327932                       # miss rate for demand accesses
system.cpu.dcache.demand_miss_rate::total     0.327932                       # miss rate for demand accesses
system.cpu.dcache.overall_miss_rate::switch_cpus.data     0.327932                       # miss rate for overall accesses
system.cpu.dcache.overall_miss_rate::total     0.327932                       # miss rate for overall accesses
system.cpu.dcache.ReadReq_avg_miss_latency::switch_cpus.data 26037.868049                       # average ReadReq miss latency
system.cpu.dcache.ReadReq_avg_miss_latency::total 26037.868049                       # average ReadReq miss latency
system.cpu.dcache.WriteReq_avg_miss_latency::switch_cpus.data 26807.324341                       # average WriteReq miss latency
system.cpu.dcache.WriteReq_avg_miss_latency::total 26807.324341                       # average WriteReq miss latency
system.cpu.dcache.LoadLockedReq_avg_miss_latency::switch_cpus.data 17785.443038                       # average LoadLockedReq miss latency
system.cpu.dcache.LoadLockedReq_avg_miss_latency::total 17785.443038                       # average LoadLockedReq miss latency
system.cpu.dcache.demand_avg_miss_latency::switch_cpus.data 26590.505362                       # average overall miss latency
system.cpu.dcache.demand_avg_miss_latency::total 26590.505362                       # average overall miss latency
system.cpu.dcache.overall_avg_miss_latency::switch_cpus.data 26590.505362                       # average overall miss latency
system.cpu.dcache.overall_avg_miss_latency::total 26590.505362                       # average overall miss latency
system.cpu.dcache.blocked_cycles::no_mshrs        73506                       # number of cycles access was blocked
system.cpu.dcache.blocked_cycles::no_targets            8                       # number of cycles access was blocked
system.cpu.dcache.blocked::no_mshrs              4598                       # number of cycles access was blocked
system.cpu.dcache.blocked::no_targets               1                       # number of cycles access was blocked
system.cpu.dcache.avg_blocked_cycles::no_mshrs    15.986516                       # average number of cycles each access was blocked
system.cpu.dcache.avg_blocked_cycles::no_targets            8                       # average number of cycles each access was blocked
system.cpu.dcache.fast_writes                       0                       # number of fast writes performed
system.cpu.dcache.cache_copies                      0                       # number of cache copies performed
system.cpu.dcache.writebacks::writebacks        13027                       # number of writebacks
system.cpu.dcache.writebacks::total             13027                       # number of writebacks
system.cpu.dcache.ReadReq_mshr_hits::switch_cpus.data        17409                       # number of ReadReq MSHR hits
system.cpu.dcache.ReadReq_mshr_hits::total        17409                       # number of ReadReq MSHR hits
system.cpu.dcache.WriteReq_mshr_hits::switch_cpus.data        58148                       # number of WriteReq MSHR hits
system.cpu.dcache.WriteReq_mshr_hits::total        58148                       # number of WriteReq MSHR hits
system.cpu.dcache.LoadLockedReq_mshr_hits::switch_cpus.data          176                       # number of LoadLockedReq MSHR hits
system.cpu.dcache.LoadLockedReq_mshr_hits::total          176                       # number of LoadLockedReq MSHR hits
system.cpu.dcache.demand_mshr_hits::switch_cpus.data        75557                       # number of demand (read+write) MSHR hits
system.cpu.dcache.demand_mshr_hits::total        75557                       # number of demand (read+write) MSHR hits
system.cpu.dcache.overall_mshr_hits::switch_cpus.data        75557                       # number of overall MSHR hits
system.cpu.dcache.overall_mshr_hits::total        75557                       # number of overall MSHR hits
system.cpu.dcache.ReadReq_mshr_misses::switch_cpus.data         8972                       # number of ReadReq MSHR misses
system.cpu.dcache.ReadReq_mshr_misses::total         8972                       # number of ReadReq MSHR misses
system.cpu.dcache.WriteReq_mshr_misses::switch_cpus.data         9093                       # number of WriteReq MSHR misses
system.cpu.dcache.WriteReq_mshr_misses::total         9093                       # number of WriteReq MSHR misses
system.cpu.dcache.LoadLockedReq_mshr_misses::switch_cpus.data          219                       # number of LoadLockedReq MSHR misses
system.cpu.dcache.LoadLockedReq_mshr_misses::total          219                       # number of LoadLockedReq MSHR misses
system.cpu.dcache.demand_mshr_misses::switch_cpus.data        18065                       # number of demand (read+write) MSHR misses
system.cpu.dcache.demand_mshr_misses::total        18065                       # number of demand (read+write) MSHR misses
system.cpu.dcache.overall_mshr_misses::switch_cpus.data        18065                       # number of overall MSHR misses
system.cpu.dcache.overall_mshr_misses::total        18065                       # number of overall MSHR misses
system.cpu.dcache.WriteReq_mshr_uncacheable::switch_cpus.data            1                       # number of WriteReq MSHR uncacheable
system.cpu.dcache.WriteReq_mshr_uncacheable::total            1                       # number of WriteReq MSHR uncacheable
system.cpu.dcache.overall_mshr_uncacheable_misses::switch_cpus.data            1                       # number of overall MSHR uncacheable misses
system.cpu.dcache.overall_mshr_uncacheable_misses::total            1                       # number of overall MSHR uncacheable misses
system.cpu.dcache.ReadReq_mshr_miss_latency::switch_cpus.data    220681253                       # number of ReadReq MSHR miss cycles
system.cpu.dcache.ReadReq_mshr_miss_latency::total    220681253                       # number of ReadReq MSHR miss cycles
system.cpu.dcache.WriteReq_mshr_miss_latency::switch_cpus.data    247967548                       # number of WriteReq MSHR miss cycles
system.cpu.dcache.WriteReq_mshr_miss_latency::total    247967548                       # number of WriteReq MSHR miss cycles
system.cpu.dcache.LoadLockedReq_mshr_miss_latency::switch_cpus.data      4097750                       # number of LoadLockedReq MSHR miss cycles
system.cpu.dcache.LoadLockedReq_mshr_miss_latency::total      4097750                       # number of LoadLockedReq MSHR miss cycles
system.cpu.dcache.demand_mshr_miss_latency::switch_cpus.data    468648801                       # number of demand (read+write) MSHR miss cycles
system.cpu.dcache.demand_mshr_miss_latency::total    468648801                       # number of demand (read+write) MSHR miss cycles
system.cpu.dcache.overall_mshr_miss_latency::switch_cpus.data    468648801                       # number of overall MSHR miss cycles
system.cpu.dcache.overall_mshr_miss_latency::total    468648801                       # number of overall MSHR miss cycles
system.cpu.dcache.WriteReq_mshr_uncacheable_latency::switch_cpus.data       227500                       # number of WriteReq MSHR uncacheable cycles
system.cpu.dcache.WriteReq_mshr_uncacheable_latency::total       227500                       # number of WriteReq MSHR uncacheable cycles
system.cpu.dcache.overall_mshr_uncacheable_latency::switch_cpus.data       227500                       # number of overall MSHR uncacheable cycles
system.cpu.dcache.overall_mshr_uncacheable_latency::total       227500                       # number of overall MSHR uncacheable cycles
system.cpu.dcache.ReadReq_mshr_miss_rate::switch_cpus.data     0.056339                       # mshr miss rate for ReadReq accesses
system.cpu.dcache.ReadReq_mshr_miss_rate::total     0.056339                       # mshr miss rate for ReadReq accesses
system.cpu.dcache.WriteReq_mshr_miss_rate::switch_cpus.data     0.072028                       # mshr miss rate for WriteReq accesses
system.cpu.dcache.WriteReq_mshr_miss_rate::total     0.072028                       # mshr miss rate for WriteReq accesses
system.cpu.dcache.LoadLockedReq_mshr_miss_rate::switch_cpus.data     0.083333                       # mshr miss rate for LoadLockedReq accesses
system.cpu.dcache.LoadLockedReq_mshr_miss_rate::total     0.083333                       # mshr miss rate for LoadLockedReq accesses
system.cpu.dcache.demand_mshr_miss_rate::switch_cpus.data     0.063277                       # mshr miss rate for demand accesses
system.cpu.dcache.demand_mshr_miss_rate::total     0.063277                       # mshr miss rate for demand accesses
system.cpu.dcache.overall_mshr_miss_rate::switch_cpus.data     0.063277                       # mshr miss rate for overall accesses
system.cpu.dcache.overall_mshr_miss_rate::total     0.063277                       # mshr miss rate for overall accesses
system.cpu.dcache.ReadReq_avg_mshr_miss_latency::switch_cpus.data 24596.662171                       # average ReadReq mshr miss latency
system.cpu.dcache.ReadReq_avg_mshr_miss_latency::total 24596.662171                       # average ReadReq mshr miss latency
system.cpu.dcache.WriteReq_avg_mshr_miss_latency::switch_cpus.data 27270.158144                       # average WriteReq mshr miss latency
system.cpu.dcache.WriteReq_avg_mshr_miss_latency::total 27270.158144                       # average WriteReq mshr miss latency
system.cpu.dcache.LoadLockedReq_avg_mshr_miss_latency::switch_cpus.data 18711.187215                       # average LoadLockedReq mshr miss latency
system.cpu.dcache.LoadLockedReq_avg_mshr_miss_latency::total 18711.187215                       # average LoadLockedReq mshr miss latency
system.cpu.dcache.demand_avg_mshr_miss_latency::switch_cpus.data 25942.363742                       # average overall mshr miss latency
system.cpu.dcache.demand_avg_mshr_miss_latency::total 25942.363742                       # average overall mshr miss latency
system.cpu.dcache.overall_avg_mshr_miss_latency::switch_cpus.data 25942.363742                       # average overall mshr miss latency
system.cpu.dcache.overall_avg_mshr_miss_latency::total 25942.363742                       # average overall mshr miss latency
system.cpu.dcache.WriteReq_avg_mshr_uncacheable_latency::switch_cpus.data       227500                       # average WriteReq mshr uncacheable latency
system.cpu.dcache.WriteReq_avg_mshr_uncacheable_latency::total       227500                       # average WriteReq mshr uncacheable latency
system.cpu.dcache.overall_avg_mshr_uncacheable_latency::switch_cpus.data       227500                       # average overall mshr uncacheable latency
system.cpu.dcache.overall_avg_mshr_uncacheable_latency::total       227500                       # average overall mshr uncacheable latency
system.cpu.dcache.no_allocate_misses                0                       # Number of misses that were no-allocate
system.cpu.icache.tags.replacements             10398                       # number of replacements
system.cpu.icache.tags.tagsinuse           511.872143                       # Cycle average of tags in use
system.cpu.icache.tags.total_refs              363187                       # Total number of references to valid blocks.
system.cpu.icache.tags.sampled_refs             10398                       # Sample count of references to valid blocks.
system.cpu.icache.tags.avg_refs             34.928544                       # Average number of references to valid blocks.
system.cpu.icache.tags.warmup_cycle                 0                       # Cycle when the warmup percentage was hit.
system.cpu.icache.tags.occ_blocks::cpu.inst    22.804412                       # Average occupied blocks per requestor
system.cpu.icache.tags.occ_blocks::switch_cpus.inst   489.067731                       # Average occupied blocks per requestor
system.cpu.icache.tags.occ_percent::cpu.inst     0.044540                       # Average percentage of cache occupancy
system.cpu.icache.tags.occ_percent::switch_cpus.inst     0.955210                       # Average percentage of cache occupancy
system.cpu.icache.tags.occ_percent::total     0.999750                       # Average percentage of cache occupancy
system.cpu.icache.tags.occ_task_id_blocks::1024          511                       # Occupied blocks per task id
system.cpu.icache.tags.age_task_id_blocks_1024::0           67                       # Occupied blocks per task id
system.cpu.icache.tags.age_task_id_blocks_1024::1          111                       # Occupied blocks per task id
system.cpu.icache.tags.age_task_id_blocks_1024::2          333                       # Occupied blocks per task id
system.cpu.icache.tags.occ_task_id_percent::1024     0.998047                       # Percentage of cache occupancy per task id
system.cpu.icache.tags.tag_accesses            333503                       # Number of tag accesses
system.cpu.icache.tags.data_accesses           333503                       # Number of data accesses
system.cpu.icache.ReadReq_hits::switch_cpus.inst       149594                       # number of ReadReq hits
system.cpu.icache.ReadReq_hits::total          149594                       # number of ReadReq hits
system.cpu.icache.demand_hits::switch_cpus.inst       149594                       # number of demand (read+write) hits
system.cpu.icache.demand_hits::total           149594                       # number of demand (read+write) hits
system.cpu.icache.overall_hits::switch_cpus.inst       149594                       # number of overall hits
system.cpu.icache.overall_hits::total          149594                       # number of overall hits
system.cpu.icache.ReadReq_misses::switch_cpus.inst        11958                       # number of ReadReq misses
system.cpu.icache.ReadReq_misses::total         11958                       # number of ReadReq misses
system.cpu.icache.demand_misses::switch_cpus.inst        11958                       # number of demand (read+write) misses
system.cpu.icache.demand_misses::total          11958                       # number of demand (read+write) misses
system.cpu.icache.overall_misses::switch_cpus.inst        11958                       # number of overall misses
system.cpu.icache.overall_misses::total         11958                       # number of overall misses
system.cpu.icache.ReadReq_miss_latency::switch_cpus.inst    303815715                       # number of ReadReq miss cycles
system.cpu.icache.ReadReq_miss_latency::total    303815715                       # number of ReadReq miss cycles
system.cpu.icache.demand_miss_latency::switch_cpus.inst    303815715                       # number of demand (read+write) miss cycles
system.cpu.icache.demand_miss_latency::total    303815715                       # number of demand (read+write) miss cycles
system.cpu.icache.overall_miss_latency::switch_cpus.inst    303815715                       # number of overall miss cycles
system.cpu.icache.overall_miss_latency::total    303815715                       # number of overall miss cycles
system.cpu.icache.ReadReq_accesses::switch_cpus.inst       161552                       # number of ReadReq accesses(hits+misses)
system.cpu.icache.ReadReq_accesses::total       161552                       # number of ReadReq accesses(hits+misses)
system.cpu.icache.demand_accesses::switch_cpus.inst       161552                       # number of demand (read+write) accesses
system.cpu.icache.demand_accesses::total       161552                       # number of demand (read+write) accesses
system.cpu.icache.overall_accesses::switch_cpus.inst       161552                       # number of overall (read+write) accesses
system.cpu.icache.overall_accesses::total       161552                       # number of overall (read+write) accesses
system.cpu.icache.ReadReq_miss_rate::switch_cpus.inst     0.074020                       # miss rate for ReadReq accesses
system.cpu.icache.ReadReq_miss_rate::total     0.074020                       # miss rate for ReadReq accesses
system.cpu.icache.demand_miss_rate::switch_cpus.inst     0.074020                       # miss rate for demand accesses
system.cpu.icache.demand_miss_rate::total     0.074020                       # miss rate for demand accesses
system.cpu.icache.overall_miss_rate::switch_cpus.inst     0.074020                       # miss rate for overall accesses
system.cpu.icache.overall_miss_rate::total     0.074020                       # miss rate for overall accesses
system.cpu.icache.ReadReq_avg_miss_latency::switch_cpus.inst 25406.900401                       # average ReadReq miss latency
system.cpu.icache.ReadReq_avg_miss_latency::total 25406.900401                       # average ReadReq miss latency
system.cpu.icache.demand_avg_miss_latency::switch_cpus.inst 25406.900401                       # average overall miss latency
system.cpu.icache.demand_avg_miss_latency::total 25406.900401                       # average overall miss latency
system.cpu.icache.overall_avg_miss_latency::switch_cpus.inst 25406.900401                       # average overall miss latency
system.cpu.icache.overall_avg_miss_latency::total 25406.900401                       # average overall miss latency
system.cpu.icache.blocked_cycles::no_mshrs         2609                       # number of cycles access was blocked
system.cpu.icache.blocked_cycles::no_targets            0                       # number of cycles access was blocked
system.cpu.icache.blocked::no_mshrs                74                       # number of cycles access was blocked
system.cpu.icache.blocked::no_targets               0                       # number of cycles access was blocked
system.cpu.icache.avg_blocked_cycles::no_mshrs    35.256757                       # average number of cycles each access was blocked
system.cpu.icache.avg_blocked_cycles::no_targets          nan                       # average number of cycles each access was blocked
system.cpu.icache.fast_writes                       0                       # number of fast writes performed
system.cpu.icache.cache_copies                      0                       # number of cache copies performed
system.cpu.icache.ReadReq_mshr_hits::switch_cpus.inst         1559                       # number of ReadReq MSHR hits
system.cpu.icache.ReadReq_mshr_hits::total         1559                       # number of ReadReq MSHR hits
system.cpu.icache.demand_mshr_hits::switch_cpus.inst         1559                       # number of demand (read+write) MSHR hits
system.cpu.icache.demand_mshr_hits::total         1559                       # number of demand (read+write) MSHR hits
system.cpu.icache.overall_mshr_hits::switch_cpus.inst         1559                       # number of overall MSHR hits
system.cpu.icache.overall_mshr_hits::total         1559                       # number of overall MSHR hits
system.cpu.icache.ReadReq_mshr_misses::switch_cpus.inst        10399                       # number of ReadReq MSHR misses
system.cpu.icache.ReadReq_mshr_misses::total        10399                       # number of ReadReq MSHR misses
system.cpu.icache.demand_mshr_misses::switch_cpus.inst        10399                       # number of demand (read+write) MSHR misses
system.cpu.icache.demand_mshr_misses::total        10399                       # number of demand (read+write) MSHR misses
system.cpu.icache.overall_mshr_misses::switch_cpus.inst        10399                       # number of overall MSHR misses
system.cpu.icache.overall_mshr_misses::total        10399                       # number of overall MSHR misses
system.cpu.icache.ReadReq_mshr_miss_latency::switch_cpus.inst    244694767                       # number of ReadReq MSHR miss cycles
system.cpu.icache.ReadReq_mshr_miss_latency::total    244694767                       # number of ReadReq MSHR miss cycles
system.cpu.icache.demand_mshr_miss_latency::switch_cpus.inst    244694767                       # number of demand (read+write) MSHR miss cycles
system.cpu.icache.demand_mshr_miss_latency::total    244694767                       # number of demand (read+write) MSHR miss cycles
system.cpu.icache.overall_mshr_miss_latency::switch_cpus.inst    244694767                       # number of overall MSHR miss cycles
system.cpu.icache.overall_mshr_miss_latency::total    244694767                       # number of overall MSHR miss cycles
system.cpu.icache.ReadReq_mshr_miss_rate::switch_cpus.inst     0.064369                       # mshr miss rate for ReadReq accesses
system.cpu.icache.ReadReq_mshr_miss_rate::total     0.064369                       # mshr miss rate for ReadReq accesses
system.cpu.icache.demand_mshr_miss_rate::switch_cpus.inst     0.064369                       # mshr miss rate for demand accesses
system.cpu.icache.demand_mshr_miss_rate::total     0.064369                       # mshr miss rate for demand accesses
system.cpu.icache.overall_mshr_miss_rate::switch_cpus.inst     0.064369                       # mshr miss rate for overall accesses
system.cpu.icache.overall_mshr_miss_rate::total     0.064369                       # mshr miss rate for overall accesses
system.cpu.icache.ReadReq_avg_mshr_miss_latency::switch_cpus.inst 23530.605539                       # average ReadReq mshr miss latency
system.cpu.icache.ReadReq_avg_mshr_miss_latency::total 23530.605539                       # average ReadReq mshr miss latency
system.cpu.icache.demand_avg_mshr_miss_latency::switch_cpus.inst 23530.605539                       # average overall mshr miss latency
system.cpu.icache.demand_avg_mshr_miss_latency::total 23530.605539                       # average overall mshr miss latency
system.cpu.icache.overall_avg_mshr_miss_latency::switch_cpus.inst 23530.605539                       # average overall mshr miss latency
[...]
system.switch_cpus.iew.wb_fanout             0.669823                       # average fanout of values written-back
system.switch_cpus.iew.wb_penalized_rate            0                       # fraction of instructions written-back that wrote to 'other' IQ
system.switch_cpus.commit.commitSquashedInsts      2090201                       # The number of squashed insts skipped by commit
system.switch_cpus.commit.commitNonSpecStalls        60013                       # The number of times commit has been forced to stall to communicate backwards
system.switch_cpus.commit.branchMispredicts       135459                       # The number of times a branch was mispredicted
system.switch_cpus.commit.committed_per_cycle::samples     13983038                       # Number of insts commited each cycle
system.switch_cpus.commit.committed_per_cycle::mean     1.710047                       # Number of insts commited each cycle
system.switch_cpus.commit.committed_per_cycle::stdev     2.035305                       # Number of insts commited each cycle
system.switch_cpus.commit.committed_per_cycle::underflows            0      0.00%      0.00% # Number of insts commited each cycle
system.switch_cpus.commit.committed_per_cycle::0      4965227     35.51%     35.51% # Number of insts commited each cycle
system.switch_cpus.commit.committed_per_cycle::1      2260174     16.16%     51.67% # Number of insts commited each cycle
system.switch_cpus.commit.committed_per_cycle::2      4385092     31.36%     83.03% # Number of insts commited each cycle
system.switch_cpus.commit.committed_per_cycle::3       526748      3.77%     86.80% # Number of insts commited each cycle
system.switch_cpus.commit.committed_per_cycle::4       498493      3.56%     90.36% # Number of insts commited each cycle
system.switch_cpus.commit.committed_per_cycle::5       273454      1.96%     92.32% # Number of insts commited each cycle
system.switch_cpus.commit.committed_per_cycle::6       249666      1.79%     94.11% # Number of insts commited each cycle
system.switch_cpus.commit.committed_per_cycle::7       151664      1.08%     95.19% # Number of insts commited each cycle
system.switch_cpus.commit.committed_per_cycle::8       672520      4.81%    100.00% # Number of insts commited each cycle
system.switch_cpus.commit.committed_per_cycle::overflows            0      0.00%    100.00% # Number of insts commited each cycle
system.switch_cpus.commit.committed_per_cycle::min_value            0                       # Number of insts commited each cycle
system.switch_cpus.commit.committed_per_cycle::max_value            8                       # Number of insts commited each cycle
system.switch_cpus.commit.committed_per_cycle::total     13983038                       # Number of insts commited each cycle
system.switch_cpus.commit.committedInsts     23911648                       # Number of instructions committed
system.switch_cpus.commit.committedOps       23911648                       # Number of ops (including micro ops) committed
system.switch_cpus.commit.swp_count                 0                       # Number of s/w prefetches committed
system.switch_cpus.commit.refs                5573558                       # Number of memory references committed
system.switch_cpus.commit.loads               3543502                       # Number of loads committed
system.switch_cpus.commit.membars               15773                       # Number of memory barriers committed
system.switch_cpus.commit.branches            2884988                       # Number of branches committed
system.switch_cpus.commit.fp_insts              70145                       # Number of committed floating point instructions.
system.switch_cpus.commit.int_insts          23319113                       # Number of committed integer instructions.
system.switch_cpus.commit.function_calls       279729                       # Number of function calls committed.
system.switch_cpus.commit.op_class_0::No_OpClass       279176      1.17%      1.17% # Class of committed instruction
system.switch_cpus.commit.op_class_0::IntAlu     17792359     74.41%     75.58% # Class of committed instruction
system.switch_cpus.commit.op_class_0::IntMult       169619      0.71%     76.29% # Class of committed instruction
system.switch_cpus.commit.op_class_0::IntDiv            0      0.00%     76.29% # Class of committed instruction
system.switch_cpus.commit.op_class_0::FloatAdd        13641      0.06%     76.34% # Class of committed instruction
system.switch_cpus.commit.op_class_0::FloatCmp         4097      0.02%     76.36% # Class of committed instruction
system.switch_cpus.commit.op_class_0::FloatCvt         8194      0.03%     76.39% # Class of committed instruction
system.switch_cpus.commit.op_class_0::FloatMult            1      0.00%     76.39% # Class of committed instruction
system.switch_cpus.commit.op_class_0::FloatDiv          245      0.00%     76.40% # Class of committed instruction
system.switch_cpus.commit.op_class_0::FloatSqrt            0      0.00%     76.40% # Class of committed instruction
system.switch_cpus.commit.op_class_0::SimdAdd            0      0.00%     76.40% # Class of committed instruction
system.switch_cpus.commit.op_class_0::SimdAddAcc            0      0.00%     76.40% # Class of committed instruction
system.switch_cpus.commit.op_class_0::SimdAlu            0      0.00%     76.40% # Class of committed instruction
system.switch_cpus.commit.op_class_0::SimdCmp            0      0.00%     76.40% # Class of committed instruction
system.switch_cpus.commit.op_class_0::SimdCvt            0      0.00%     76.40% # Class of committed instruction
system.switch_cpus.commit.op_class_0::SimdMisc            0      0.00%     76.40% # Class of committed instruction
system.switch_cpus.commit.op_class_0::SimdMult            0      0.00%     76.40% # Class of committed instruction
system.switch_cpus.commit.op_class_0::SimdMultAcc            0      0.00%     76.40% # Class of committed instruction
system.switch_cpus.commit.op_class_0::SimdShift            0      0.00%     76.40% # Class of committed instruction
system.switch_cpus.commit.op_class_0::SimdShiftAcc            0      0.00%     76.40% # Class of committed instruction
system.switch_cpus.commit.op_class_0::SimdSqrt            0      0.00%     76.40% # Class of committed instruction
system.switch_cpus.commit.op_class_0::SimdFloatAdd            0      0.00%     76.40% # Class of committed instruction
system.switch_cpus.commit.op_class_0::SimdFloatAlu            0      0.00%     76.40% # Class of committed instruction
system.switch_cpus.commit.op_class_0::SimdFloatCmp            0      0.00%     76.40% # Class of committed instruction
system.switch_cpus.commit.op_class_0::SimdFloatCvt            0      0.00%     76.40% # Class of committed instruction
system.switch_cpus.commit.op_class_0::SimdFloatDiv            0      0.00%     76.40% # Class of committed instruction
system.switch_cpus.commit.op_class_0::SimdFloatMisc            0      0.00%     76.40% # Class of committed instruction
system.switch_cpus.commit.op_class_0::SimdFloatMult            0      0.00%     76.40% # Class of committed instruction
system.switch_cpus.commit.op_class_0::SimdFloatMultAcc            0      0.00%     76.40% # Class of committed instruction
system.switch_cpus.commit.op_class_0::SimdFloatSqrt            0      0.00%     76.40% # Class of committed instruction
system.switch_cpus.commit.op_class_0::MemRead      3559275     14.89%     91.28% # Class of committed instruction
system.switch_cpus.commit.op_class_0::MemWrite      2030473      8.49%     99.77% # Class of committed instruction
system.switch_cpus.commit.op_class_0::IprAccess        54568      0.23%    100.00% # Class of committed instruction
system.switch_cpus.commit.op_class_0::InstPrefetch            0      0.00%    100.00% # Class of committed instruction
system.switch_cpus.commit.op_class_0::total     23911648                       # Class of committed instruction
system.switch_cpus.commit.bw_lim_events        672520                       # number cycles where commit BW limit reached
system.switch_cpus.rob.rob_reads             39291483                       # The number of ROB reads
system.switch_cpus.rob.rob_writes            52349793                       # The number of ROB writes
system.switch_cpus.timesIdled                   21034                       # Number of times that the entire CPU went into an idle state and unscheduled itself
system.switch_cpus.idleCycles                  532000                       # Total number of cycles that the CPU has spent unscheduled due to idling
system.switch_cpus.quiesceCycles                14391                       # Total number of cycles that CPU has spent quiesced or waiting for an interrupt
system.switch_cpus.committedInsts            23632970                       # Number of Instructions Simulated
system.switch_cpus.committedOps              23632970                       # Number of Ops (including micro ops) Simulated
system.switch_cpus.cpi                       0.628565                       # CPI: Cycles Per Instruction
system.switch_cpus.cpi_total                 0.628565                       # CPI: Total CPI of All Threads
system.switch_cpus.ipc                       1.590925                       # IPC: Instructions Per Cycle
system.switch_cpus.ipc_total                 1.590925                       # IPC: Total IPC of All Threads
system.switch_cpus.int_regfile_reads         37469696                       # number of integer regfile reads
system.switch_cpus.int_regfile_writes        19629110                       # number of integer regfile writes
system.switch_cpus.fp_regfile_reads             64625                       # number of floating regfile reads
system.switch_cpus.fp_regfile_writes            31518                       # number of floating regfile writes
system.switch_cpus.misc_regfile_reads          192235                       # number of misc regfile reads
system.switch_cpus.misc_regfile_writes          66653                       # number of misc regfile writes
system.tol2bus.trans_dist::ReadReq              63941                       # Transaction distribution
system.tol2bus.trans_dist::ReadResp             63942                       # Transaction distribution
system.tol2bus.trans_dist::WriteReq               194                       # Transaction distribution
system.tol2bus.trans_dist::WriteResp              194                       # Transaction distribution
system.tol2bus.trans_dist::Writeback            17457                       # Transaction distribution
system.tol2bus.trans_dist::WriteInvalidateReq          192                       # Transaction distribution
system.tol2bus.trans_dist::UpgradeReq               1                       # Transaction distribution
system.tol2bus.trans_dist::SCUpgradeReq             8                       # Transaction distribution
system.tol2bus.trans_dist::UpgradeResp              9                       # Transaction distribution
system.tol2bus.trans_dist::ReadExReq            11530                       # Transaction distribution
system.tol2bus.trans_dist::ReadExResp           11530                       # Transaction distribution
system.tol2bus.pkt_count_system.cpu.icache.mem_side::system.l2.cpu_side        96223                       # Packet count per connected master and slave (bytes)
system.tol2bus.pkt_count_system.cpu.dcache.mem_side::system.l2.cpu_side        72564                       # Packet count per connected master and slave (bytes)
system.tol2bus.pkt_count::total                168787                       # Packet count per connected master and slave (bytes)
system.tol2bus.pkt_size_system.cpu.icache.mem_side::system.l2.cpu_side      3078656                       # Cumulative packet size per connected master and slave (bytes)
system.tol2bus.pkt_size_system.cpu.dcache.mem_side::system.l2.cpu_side      2847273                       # Cumulative packet size per connected master and slave (bytes)
system.tol2bus.pkt_size::total                5925929                       # Cumulative packet size per connected master and slave (bytes)
system.tol2bus.snoops                             214                       # Total snoops (count)
system.tol2bus.snoop_fanout::samples            93323                       # Request fanout histogram
system.tol2bus.snoop_fanout::mean            1.002090                       # Request fanout histogram
system.tol2bus.snoop_fanout::stdev           0.045664                       # Request fanout histogram
system.tol2bus.snoop_fanout::underflows             0      0.00%      0.00% # Request fanout histogram
system.tol2bus.snoop_fanout::0                      0      0.00%      0.00% # Request fanout histogram
system.tol2bus.snoop_fanout::1                  93128     99.79%     99.79% # Request fanout histogram
system.tol2bus.snoop_fanout::2                    195      0.21%    100.00% # Request fanout histogram
system.tol2bus.snoop_fanout::overflows              0      0.00%    100.00% # Request fanout histogram
system.tol2bus.snoop_fanout::min_value              1                       # Request fanout histogram
system.tol2bus.snoop_fanout::max_value              2                       # Request fanout histogram
system.tol2bus.snoop_fanout::total              93323                       # Request fanout histogram
system.tol2bus.reqLayer0.occupancy           64118000                       # Layer occupancy (ticks)
system.tol2bus.reqLayer0.utilization              0.9                       # Layer utilization (%)
system.tol2bus.snoopLayer0.occupancy             4500                       # Layer occupancy (ticks)
system.tol2bus.snoopLayer0.utilization            0.0                       # Layer utilization (%)
system.tol2bus.respLayer0.occupancy          73085957                       # Layer occupancy (ticks)
system.tol2bus.respLayer0.utilization             1.0                       # Layer utilization (%)
system.tol2bus.respLayer1.occupancy          42563247                       # Layer occupancy (ticks)
system.tol2bus.respLayer1.utilization             0.6                       # Layer utilization (%)
system.tsunami.ethernet.descDMAReads                0                       # Number of descriptors the device read w/ DMA
system.tsunami.ethernet.descDMAWrites               0                       # Number of descriptors the device wrote w/ DMA
system.tsunami.ethernet.descDmaReadBytes            0                       # number of descriptor bytes read w/ DMA
system.tsunami.ethernet.descDmaWriteBytes            0                       # number of descriptor bytes write w/ DMA
system.tsunami.ethernet.postedSwi                   0                       # number of software interrupts posted to CPU
system.tsunami.ethernet.coalescedSwi              nan                       # average number of Swi's coalesced into each post
system.tsunami.ethernet.totalSwi                    0                       # total number of Swi written to ISR
system.tsunami.ethernet.postedRxIdle                0                       # number of rxIdle interrupts posted to CPU
system.tsunami.ethernet.coalescedRxIdle           nan                       # average number of RxIdle's coalesced into each post
system.tsunami.ethernet.totalRxIdle                 0                       # total number of RxIdle written to ISR
system.tsunami.ethernet.postedRxOk                  0                       # number of RxOk interrupts posted to CPU
system.tsunami.ethernet.coalescedRxOk             nan                       # average number of RxOk's coalesced into each post
system.tsunami.ethernet.totalRxOk                   0                       # total number of RxOk written to ISR
system.tsunami.ethernet.postedRxDesc                0                       # number of RxDesc interrupts posted to CPU
system.tsunami.ethernet.coalescedRxDesc           nan                       # average number of RxDesc's coalesced into each post
system.tsunami.ethernet.totalRxDesc                 0                       # total number of RxDesc written to ISR
system.tsunami.ethernet.postedTxOk                  0                       # number of TxOk interrupts posted to CPU
system.tsunami.ethernet.coalescedTxOk             nan                       # average number of TxOk's coalesced into each post
system.tsunami.ethernet.totalTxOk                   0                       # total number of TxOk written to ISR
system.tsunami.ethernet.postedTxIdle                0                       # number of TxIdle interrupts posted to CPU
system.tsunami.ethernet.coalescedTxIdle           nan                       # average number of TxIdle's coalesced into each post
system.tsunami.ethernet.totalTxIdle                 0                       # total number of TxIdle written to ISR
system.tsunami.ethernet.postedTxDesc                0                       # number of TxDesc interrupts posted to CPU
system.tsunami.ethernet.coalescedTxDesc           nan                       # average number of TxDesc's coalesced into each post
system.tsunami.ethernet.totalTxDesc                 0                       # total number of TxDesc written to ISR
system.tsunami.ethernet.postedRxOrn                 0                       # number of RxOrn posted to CPU
system.tsunami.ethernet.coalescedRxOrn            nan                       # average number of RxOrn's coalesced into each post
system.tsunami.ethernet.totalRxOrn                  0                       # total number of RxOrn written to ISR
system.tsunami.ethernet.coalescedTotal            nan                       # average number of interrupts coalesced into each post
system.tsunami.ethernet.postedInterrupts            0                       # number of posts to CPU
system.tsunami.ethernet.droppedPackets              0                       # number of packets dropped
system.switch_cpus.kern.inst.arm                    0                       # number of arm instructions executed
system.switch_cpus.kern.inst.quiesce                0                       # number of quiesce instructions executed
system.switch_cpus.kern.inst.hwrei                  0                       # number of hwrei instructions executed
system.switch_cpus.kern.mode_switch::kernel            0                       # number of protection mode switches
system.switch_cpus.kern.mode_switch::user            0                       # number of protection mode switches
system.switch_cpus.kern.mode_switch::idle            0                       # number of protection mode switches
system.switch_cpus.kern.mode_good::kernel            0                      
system.switch_cpus.kern.mode_good::user             0                      
system.switch_cpus.kern.mode_good::idle             0                      
system.switch_cpus.kern.mode_switch_good::kernel          nan                       # fraction of useful protection mode switches
system.switch_cpus.kern.mode_switch_good::user          nan                       # fraction of useful protection mode switches
system.switch_cpus.kern.mode_switch_good::idle          nan                       # fraction of useful protection mode switches
system.switch_cpus.kern.mode_switch_good::total          nan                       # fraction of useful protection mode switches
system.switch_cpus.kern.mode_ticks::kernel            0                       # number of ticks spent at the given mode
system.switch_cpus.kern.mode_ticks::user            0                       # number of ticks spent at the given mode
system.switch_cpus.kern.mode_ticks::idle            0                       # number of ticks spent at the given mode
system.switch_cpus.kern.swap_context                0                       # number of times the context was actually changed

---------- End Simulation Statistics   ----------
