
---------- Begin Simulation Statistics ----------
sim_seconds                                  0.001189                       # Number of seconds simulated
sim_ticks                                  1189248500                       # Number of ticks simulated
final_tick                               2262441002000                       # Number of ticks from beginning of simulation (restored from checkpoints and never reset)
sim_freq                                 1000000000000                       # Frequency of simulated ticks
host_inst_rate                               33034560                       # Simulator instruction rate (inst/s)
host_op_rate                                 33034487                       # Simulator op (including micro ops) rate (op/s)
host_tick_rate                              333242059                       # Simulator tick rate (ticks/s)
host_mem_usage                                 741904                       # Number of bytes of host memory used
host_seconds                                     3.57                       # Real time elapsed on the host
sim_insts                                   117890694                       # Number of instructions simulated
sim_ops                                     117890694                       # Number of ops (including micro ops) simulated
system.voltage_domain.voltage                       1                       # Voltage in Volts
system.clk_domain.clock                          1000                       # Clock period in ticks
system.mem_ctrls.bytes_read::switch_cpus0.inst       181824                       # Number of bytes read from this memory
system.mem_ctrls.bytes_read::switch_cpus0.data       246016                       # Number of bytes read from this memory
system.mem_ctrls.bytes_read::switch_cpus1.inst        74368                       # Number of bytes read from this memory
system.mem_ctrls.bytes_read::switch_cpus1.data       138048                       # Number of bytes read from this memory
system.mem_ctrls.bytes_read::switch_cpus2.inst         3264                       # Number of bytes read from this memory
system.mem_ctrls.bytes_read::switch_cpus2.data         2496                       # Number of bytes read from this memory
system.mem_ctrls.bytes_read::switch_cpus3.inst       240320                       # Number of bytes read from this memory
system.mem_ctrls.bytes_read::switch_cpus3.data       693248                       # Number of bytes read from this memory
system.mem_ctrls.bytes_read::total            1579584                       # Number of bytes read from this memory
system.mem_ctrls.bytes_inst_read::switch_cpus0.inst       181824                       # Number of instructions bytes read from this memory
system.mem_ctrls.bytes_inst_read::switch_cpus1.inst        74368                       # Number of instructions bytes read from this memory
system.mem_ctrls.bytes_inst_read::switch_cpus2.inst         3264                       # Number of instructions bytes read from this memory
system.mem_ctrls.bytes_inst_read::switch_cpus3.inst       240320                       # Number of instructions bytes read from this memory
system.mem_ctrls.bytes_inst_read::total        499776                       # Number of instructions bytes read from this memory
system.mem_ctrls.bytes_written::writebacks       666880                       # Number of bytes written to this memory
system.mem_ctrls.bytes_written::total          666880                       # Number of bytes written to this memory
system.mem_ctrls.num_reads::switch_cpus0.inst         2841                       # Number of read requests responded to by this memory
system.mem_ctrls.num_reads::switch_cpus0.data         3844                       # Number of read requests responded to by this memory
system.mem_ctrls.num_reads::switch_cpus1.inst         1162                       # Number of read requests responded to by this memory
system.mem_ctrls.num_reads::switch_cpus1.data         2157                       # Number of read requests responded to by this memory
system.mem_ctrls.num_reads::switch_cpus2.inst           51                       # Number of read requests responded to by this memory
system.mem_ctrls.num_reads::switch_cpus2.data           39                       # Number of read requests responded to by this memory
system.mem_ctrls.num_reads::switch_cpus3.inst         3755                       # Number of read requests responded to by this memory
system.mem_ctrls.num_reads::switch_cpus3.data        10832                       # Number of read requests responded to by this memory
system.mem_ctrls.num_reads::total               24681                       # Number of read requests responded to by this memory
system.mem_ctrls.num_writes::writebacks         10420                       # Number of write requests responded to by this memory
system.mem_ctrls.num_writes::total              10420                       # Number of write requests responded to by this memory
system.mem_ctrls.bw_read::switch_cpus0.inst    152889829                       # Total read bandwidth from this memory (bytes/s)
system.mem_ctrls.bw_read::switch_cpus0.data    206866773                       # Total read bandwidth from this memory (bytes/s)
system.mem_ctrls.bw_read::switch_cpus1.inst     62533608                       # Total read bandwidth from this memory (bytes/s)
system.mem_ctrls.bw_read::switch_cpus1.data    116080029                       # Total read bandwidth from this memory (bytes/s)
system.mem_ctrls.bw_read::switch_cpus2.inst      2744590                       # Total read bandwidth from this memory (bytes/s)
system.mem_ctrls.bw_read::switch_cpus2.data      2098804                       # Total read bandwidth from this memory (bytes/s)
system.mem_ctrls.bw_read::switch_cpus3.inst    202077194                       # Total read bandwidth from this memory (bytes/s)
system.mem_ctrls.bw_read::switch_cpus3.data    582929472                       # Total read bandwidth from this memory (bytes/s)
system.mem_ctrls.bw_read::total            1328220300                       # Total read bandwidth from this memory (bytes/s)
system.mem_ctrls.bw_inst_read::switch_cpus0.inst    152889829                       # Instruction read bandwidth from this memory (bytes/s)
system.mem_ctrls.bw_inst_read::switch_cpus1.inst     62533608                       # Instruction read bandwidth from this memory (bytes/s)
system.mem_ctrls.bw_inst_read::switch_cpus2.inst      2744590                       # Instruction read bandwidth from this memory (bytes/s)
system.mem_ctrls.bw_inst_read::switch_cpus3.inst    202077194                       # Instruction read bandwidth from this memory (bytes/s)
system.mem_ctrls.bw_inst_read::total        420245222                       # Instruction read bandwidth from this memory (bytes/s)
system.mem_ctrls.bw_write::writebacks       560757487                       # Write bandwidth from this memory (bytes/s)
system.mem_ctrls.bw_write::total            560757487                       # Write bandwidth from this memory (bytes/s)
system.mem_ctrls.bw_total::writebacks       560757487                       # Total bandwidth to/from this memory (bytes/s)
system.mem_ctrls.bw_total::switch_cpus0.inst    152889829                       # Total bandwidth to/from this memory (bytes/s)
system.mem_ctrls.bw_total::switch_cpus0.data    206866773                       # Total bandwidth to/from this memory (bytes/s)
system.mem_ctrls.bw_total::switch_cpus1.inst     62533608                       # Total bandwidth to/from this memory (bytes/s)
system.mem_ctrls.bw_total::switch_cpus1.data    116080029                       # Total bandwidth to/from this memory (bytes/s)
system.mem_ctrls.bw_total::switch_cpus2.inst      2744590                       # Total bandwidth to/from this memory (bytes/s)
system.mem_ctrls.bw_total::switch_cpus2.data      2098804                       # Total bandwidth to/from this memory (bytes/s)
system.mem_ctrls.bw_total::switch_cpus3.inst    202077194                       # Total bandwidth to/from this memory (bytes/s)
system.mem_ctrls.bw_total::switch_cpus3.data    582929472                       # Total bandwidth to/from this memory (bytes/s)
system.mem_ctrls.bw_total::total           1888977787                       # Total bandwidth to/from this memory (bytes/s)
system.mem_ctrls.readReqs                       24681                       # Number of read requests accepted
system.mem_ctrls.writeReqs                      10420                       # Number of write requests accepted
system.mem_ctrls.readBursts                     24681                       # Number of DRAM read bursts, including those serviced by the write queue
system.mem_ctrls.writeBursts                    10420                       # Number of DRAM write bursts, including those merged in the write queue
system.mem_ctrls.bytesReadDRAM                1575232                       # Total number of bytes read from DRAM
system.mem_ctrls.bytesReadWrQ                    4352                       # Total number of bytes read from write queue
system.mem_ctrls.bytesWritten                  665344                       # Total number of bytes written to DRAM
system.mem_ctrls.bytesReadSys                 1579584                       # Total read bytes from the system interface side
system.mem_ctrls.bytesWrittenSys               666880                       # Total written bytes from the system interface side
system.mem_ctrls.servicedByWrQ                     68                       # Number of DRAM read bursts serviced by the write queue
system.mem_ctrls.mergedWrBursts                     0                       # Number of DRAM write bursts merged with an existing one
system.mem_ctrls.neitherReadNorWriteReqs           59                       # Number of requests that are neither read nor write
system.mem_ctrls.perBankRdBursts::0              1143                       # Per bank write bursts
system.mem_ctrls.perBankRdBursts::1              1207                       # Per bank write bursts
system.mem_ctrls.perBankRdBursts::2              1564                       # Per bank write bursts
system.mem_ctrls.perBankRdBursts::3               959                       # Per bank write bursts
system.mem_ctrls.perBankRdBursts::4              1294                       # Per bank write bursts
system.mem_ctrls.perBankRdBursts::5              1973                       # Per bank write bursts
system.mem_ctrls.perBankRdBursts::6              1406                       # Per bank write bursts
system.mem_ctrls.perBankRdBursts::7              1203                       # Per bank write bursts
system.mem_ctrls.perBankRdBursts::8              1807                       # Per bank write bursts
system.mem_ctrls.perBankRdBursts::9              1921                       # Per bank write bursts
system.mem_ctrls.perBankRdBursts::10             1410                       # Per bank write bursts
system.mem_ctrls.perBankRdBursts::11             1291                       # Per bank write bursts
system.mem_ctrls.perBankRdBursts::12             1754                       # Per bank write bursts
system.mem_ctrls.perBankRdBursts::13             2447                       # Per bank write bursts
system.mem_ctrls.perBankRdBursts::14             1699                       # Per bank write bursts
system.mem_ctrls.perBankRdBursts::15             1535                       # Per bank write bursts
system.mem_ctrls.perBankWrBursts::0               422                       # Per bank write bursts
system.mem_ctrls.perBankWrBursts::1               626                       # Per bank write bursts
system.mem_ctrls.perBankWrBursts::2               387                       # Per bank write bursts
system.mem_ctrls.perBankWrBursts::3               202                       # Per bank write bursts
system.mem_ctrls.perBankWrBursts::4               328                       # Per bank write bursts
system.mem_ctrls.perBankWrBursts::5               797                       # Per bank write bursts
system.mem_ctrls.perBankWrBursts::6               396                       # Per bank write bursts
system.mem_ctrls.perBankWrBursts::7               297                       # Per bank write bursts
system.mem_ctrls.perBankWrBursts::8               451                       # Per bank write bursts
system.mem_ctrls.perBankWrBursts::9               612                       # Per bank write bursts
system.mem_ctrls.perBankWrBursts::10              771                       # Per bank write bursts
system.mem_ctrls.perBankWrBursts::11              760                       # Per bank write bursts
system.mem_ctrls.perBankWrBursts::12             1135                       # Per bank write bursts
system.mem_ctrls.perBankWrBursts::13             1207                       # Per bank write bursts
system.mem_ctrls.perBankWrBursts::14             1045                       # Per bank write bursts
system.mem_ctrls.perBankWrBursts::15              960                       # Per bank write bursts
system.mem_ctrls.numRdRetry                         0                       # Number of times read queue was full causing retry
system.mem_ctrls.numWrRetry                         0                       # Number of times write queue was full causing retry
system.mem_ctrls.totGap                    1189161000                       # Total gap between requests
system.mem_ctrls.readPktSize::0                     0                       # Read request sizes (log2)
system.mem_ctrls.readPktSize::1                     0                       # Read request sizes (log2)
system.mem_ctrls.readPktSize::2                     0                       # Read request sizes (log2)
system.mem_ctrls.readPktSize::3                     0                       # Read request sizes (log2)
system.mem_ctrls.readPktSize::4                     0                       # Read request sizes (log2)
system.mem_ctrls.readPktSize::5                     0                       # Read request sizes (log2)
system.mem_ctrls.readPktSize::6                 24681                       # Read request sizes (log2)
system.mem_ctrls.writePktSize::0                    0                       # Write request sizes (log2)
system.mem_ctrls.writePktSize::1                    0                       # Write request sizes (log2)
system.mem_ctrls.writePktSize::2                    0                       # Write request sizes (log2)
system.mem_ctrls.writePktSize::3                    0                       # Write request sizes (log2)
system.mem_ctrls.writePktSize::4                    0                       # Write request sizes (log2)
system.mem_ctrls.writePktSize::5                    0                       # Write request sizes (log2)
system.mem_ctrls.writePktSize::6                10420                       # Write request sizes (log2)
system.mem_ctrls.rdQLenPdf::0                   11371                       # What read queue length does an incoming req see
system.mem_ctrls.rdQLenPdf::1                    6756                       # What read queue length does an incoming req see
system.mem_ctrls.rdQLenPdf::2                    3829                       # What read queue length does an incoming req see
system.mem_ctrls.rdQLenPdf::3                    2116                       # What read queue length does an incoming req see
system.mem_ctrls.rdQLenPdf::4                     303                       # What read queue length does an incoming req see
system.mem_ctrls.rdQLenPdf::5                     131                       # What read queue length does an incoming req see
system.mem_ctrls.rdQLenPdf::6                      67                       # What read queue length does an incoming req see
system.mem_ctrls.rdQLenPdf::7                      30                       # What read queue length does an incoming req see
system.mem_ctrls.rdQLenPdf::8                       3                       # What read queue length does an incoming req see
system.mem_ctrls.rdQLenPdf::9                       3                       # What read queue length does an incoming req see
system.mem_ctrls.rdQLenPdf::10                      1                       # What read queue length does an incoming req see
system.mem_ctrls.rdQLenPdf::11                      2                       # What read queue length does an incoming req see
system.mem_ctrls.rdQLenPdf::12                      1                       # What read queue length does an incoming req see
system.mem_ctrls.rdQLenPdf::13                      0                       # What read queue length does an incoming req see
system.mem_ctrls.rdQLenPdf::14                      0                       # What read queue length does an incoming req see
system.mem_ctrls.rdQLenPdf::15                      0                       # What read queue length does an incoming req see
system.mem_ctrls.rdQLenPdf::16                      0                       # What read queue length does an incoming req see
system.mem_ctrls.rdQLenPdf::17                      0                       # What read queue length does an incoming req see
system.mem_ctrls.rdQLenPdf::18                      0                       # What read queue length does an incoming req see
system.mem_ctrls.rdQLenPdf::19                      0                       # What read queue length does an incoming req see
system.mem_ctrls.rdQLenPdf::20                      0                       # What read queue length does an incoming req see
system.mem_ctrls.rdQLenPdf::21                      0                       # What read queue length does an incoming req see
system.mem_ctrls.rdQLenPdf::22                      0                       # What read queue length does an incoming req see
system.mem_ctrls.rdQLenPdf::23                      0                       # What read queue length does an incoming req see
system.mem_ctrls.rdQLenPdf::24                      0                       # What read queue length does an incoming req see
system.mem_ctrls.rdQLenPdf::25                      0                       # What read queue length does an incoming req see
system.mem_ctrls.rdQLenPdf::26                      0                       # What read queue length does an incoming req see
system.mem_ctrls.rdQLenPdf::27                      0                       # What read queue length does an incoming req see
system.mem_ctrls.rdQLenPdf::28                      0                       # What read queue length does an incoming req see
system.mem_ctrls.rdQLenPdf::29                      0                       # What read queue length does an incoming req see
system.mem_ctrls.rdQLenPdf::30                      0                       # What read queue length does an incoming req see
system.mem_ctrls.rdQLenPdf::31                      0                       # What read queue length does an incoming req see
system.mem_ctrls.wrQLenPdf::0                       1                       # What write queue length does an incoming req see
system.mem_ctrls.wrQLenPdf::1                       1                       # What write queue length does an incoming req see
system.mem_ctrls.wrQLenPdf::2                       1                       # What write queue length does an incoming req see
system.mem_ctrls.wrQLenPdf::3                       1                       # What write queue length does an incoming req see
system.mem_ctrls.wrQLenPdf::4                       1                       # What write queue length does an incoming req see
system.mem_ctrls.wrQLenPdf::5                       1                       # What write queue length does an incoming req see
system.mem_ctrls.wrQLenPdf::6                       1                       # What write queue length does an incoming req see
system.mem_ctrls.wrQLenPdf::7                       1                       # What write queue length does an incoming req see
system.mem_ctrls.wrQLenPdf::8                       1                       # What write queue length does an incoming req see
system.mem_ctrls.wrQLenPdf::9                       1                       # What write queue length does an incoming req see
system.mem_ctrls.wrQLenPdf::10                      1                       # What write queue length does an incoming req see
system.mem_ctrls.wrQLenPdf::11                      1                       # What write queue length does an incoming req see
system.mem_ctrls.wrQLenPdf::12                      1                       # What write queue length does an incoming req see
system.mem_ctrls.wrQLenPdf::13                      1                       # What write queue length does an incoming req see
system.mem_ctrls.wrQLenPdf::14                      1                       # What write queue length does an incoming req see
system.mem_ctrls.wrQLenPdf::15                     34                       # What write queue length does an incoming req see
system.mem_ctrls.wrQLenPdf::16                     42                       # What write queue length does an incoming req see
system.mem_ctrls.wrQLenPdf::17                    286                       # What write queue length does an incoming req see
system.mem_ctrls.wrQLenPdf::18                    459                       # What write queue length does an incoming req see
system.mem_ctrls.wrQLenPdf::19                    578                       # What write queue length does an incoming req see
system.mem_ctrls.wrQLenPdf::20                    643                       # What write queue length does an incoming req see
system.mem_ctrls.wrQLenPdf::21                    662                       # What write queue length does an incoming req see
system.mem_ctrls.wrQLenPdf::22                    666                       # What write queue length does an incoming req see
system.mem_ctrls.wrQLenPdf::23                    666                       # What write queue length does an incoming req see
system.mem_ctrls.wrQLenPdf::24                    682                       # What write queue length does an incoming req see
system.mem_ctrls.wrQLenPdf::25                    697                       # What write queue length does an incoming req see
system.mem_ctrls.wrQLenPdf::26                    777                       # What write queue length does an incoming req see
system.mem_ctrls.wrQLenPdf::27                    715                       # What write queue length does an incoming req see
system.mem_ctrls.wrQLenPdf::28                    714                       # What write queue length does an incoming req see
system.mem_ctrls.wrQLenPdf::29                    755                       # What write queue length does an incoming req see
system.mem_ctrls.wrQLenPdf::30                    684                       # What write queue length does an incoming req see
system.mem_ctrls.wrQLenPdf::31                    680                       # What write queue length does an incoming req see
system.mem_ctrls.wrQLenPdf::32                    651                       # What write queue length does an incoming req see
system.mem_ctrls.wrQLenPdf::33                     11                       # What write queue length does an incoming req see
system.mem_ctrls.wrQLenPdf::34                      2                       # What write queue length does an incoming req see
system.mem_ctrls.wrQLenPdf::35                      1                       # What write queue length does an incoming req see
system.mem_ctrls.wrQLenPdf::36                      0                       # What write queue length does an incoming req see
system.mem_ctrls.wrQLenPdf::37                      0                       # What write queue length does an incoming req see
system.mem_ctrls.wrQLenPdf::38                      0                       # What write queue length does an incoming req see
system.mem_ctrls.wrQLenPdf::39                      0                       # What write queue length does an incoming req see
system.mem_ctrls.wrQLenPdf::40                      0                       # What write queue length does an incoming req see
system.mem_ctrls.wrQLenPdf::41                      0                       # What write queue length does an incoming req see
system.mem_ctrls.wrQLenPdf::42                      0                       # What write queue length does an incoming req see
system.mem_ctrls.wrQLenPdf::43                      0                       # What write queue length does an incoming req see
system.mem_ctrls.wrQLenPdf::44                      0                       # What write queue length does an incoming req see
system.mem_ctrls.wrQLenPdf::45                      0                       # What write queue length does an incoming req see
system.mem_ctrls.wrQLenPdf::46                      0                       # What write queue length does an incoming req see
system.mem_ctrls.wrQLenPdf::47                      0                       # What write queue length does an incoming req see
system.mem_ctrls.wrQLenPdf::48                      0                       # What write queue length does an incoming req see
system.mem_ctrls.wrQLenPdf::49                      0                       # What write queue length does an incoming req see
system.mem_ctrls.wrQLenPdf::50                      0                       # What write queue length does an incoming req see
system.mem_ctrls.wrQLenPdf::51                      0                       # What write queue length does an incoming req see
system.mem_ctrls.wrQLenPdf::52                      0                       # What write queue length does an incoming req see
system.mem_ctrls.wrQLenPdf::53                      0                       # What write queue length does an incoming req see
system.mem_ctrls.wrQLenPdf::54                      0                       # What write queue length does an incoming req see
system.mem_ctrls.wrQLenPdf::55                      0                       # What write queue length does an incoming req see
system.mem_ctrls.wrQLenPdf::56                      0                       # What write queue length does an incoming req see
system.mem_ctrls.wrQLenPdf::57                      0                       # What write queue length does an incoming req see
system.mem_ctrls.wrQLenPdf::58                      0                       # What write queue length does an incoming req see
system.mem_ctrls.wrQLenPdf::59                      0                       # What write queue length does an incoming req see
system.mem_ctrls.wrQLenPdf::60                      0                       # What write queue length does an incoming req see
system.mem_ctrls.wrQLenPdf::61                      0                       # What write queue length does an incoming req see
system.mem_ctrls.wrQLenPdf::62                      0                       # What write queue length does an incoming req see
system.mem_ctrls.wrQLenPdf::63                      0                       # What write queue length does an incoming req see
system.mem_ctrls.bytesPerActivate::samples         9228                       # Bytes accessed per row activation
system.mem_ctrls.bytesPerActivate::mean    242.475943                       # Bytes accessed per row activation
system.mem_ctrls.bytesPerActivate::gmean   142.375418                       # Bytes accessed per row activation
system.mem_ctrls.bytesPerActivate::stdev   293.734748                       # Bytes accessed per row activation
system.mem_ctrls.bytesPerActivate::0-127         4424     47.94%     47.94% # Bytes accessed per row activation
system.mem_ctrls.bytesPerActivate::128-255         2237     24.24%     72.18% # Bytes accessed per row activation
system.mem_ctrls.bytesPerActivate::256-383          726      7.87%     80.05% # Bytes accessed per row activation
system.mem_ctrls.bytesPerActivate::384-511          407      4.41%     84.46% # Bytes accessed per row activation
system.mem_ctrls.bytesPerActivate::512-639          238      2.58%     87.04% # Bytes accessed per row activation
system.mem_ctrls.bytesPerActivate::640-767          163      1.77%     88.81% # Bytes accessed per row activation
system.mem_ctrls.bytesPerActivate::768-895          151      1.64%     90.44% # Bytes accessed per row activation
system.mem_ctrls.bytesPerActivate::896-1023          113      1.22%     91.67% # Bytes accessed per row activation
system.mem_ctrls.bytesPerActivate::1024-1151          769      8.33%    100.00% # Bytes accessed per row activation
system.mem_ctrls.bytesPerActivate::total         9228                       # Bytes accessed per row activation
system.mem_ctrls.rdPerTurnAround::samples          643                       # Reads before turning the bus around for writes
system.mem_ctrls.rdPerTurnAround::mean      38.234837                       # Reads before turning the bus around for writes
system.mem_ctrls.rdPerTurnAround::gmean     31.605323                       # Reads before turning the bus around for writes
system.mem_ctrls.rdPerTurnAround::stdev     26.282836                       # Reads before turning the bus around for writes
system.mem_ctrls.rdPerTurnAround::8-15             44      6.84%      6.84% # Reads before turning the bus around for writes
system.mem_ctrls.rdPerTurnAround::16-23           189     29.39%     36.24% # Reads before turning the bus around for writes
system.mem_ctrls.rdPerTurnAround::24-31            96     14.93%     51.17% # Reads before turning the bus around for writes
system.mem_ctrls.rdPerTurnAround::32-39            82     12.75%     63.92% # Reads before turning the bus around for writes
system.mem_ctrls.rdPerTurnAround::40-47            68     10.58%     74.49% # Reads before turning the bus around for writes
system.mem_ctrls.rdPerTurnAround::48-55            41      6.38%     80.87% # Reads before turning the bus around for writes
system.mem_ctrls.rdPerTurnAround::56-63            31      4.82%     85.69% # Reads before turning the bus around for writes
system.mem_ctrls.rdPerTurnAround::64-71            24      3.73%     89.42% # Reads before turning the bus around for writes
system.mem_ctrls.rdPerTurnAround::72-79            13      2.02%     91.45% # Reads before turning the bus around for writes
system.mem_ctrls.rdPerTurnAround::80-87            12      1.87%     93.31% # Reads before turning the bus around for writes
system.mem_ctrls.rdPerTurnAround::88-95            19      2.95%     96.27% # Reads before turning the bus around for writes
system.mem_ctrls.rdPerTurnAround::96-103           11      1.71%     97.98% # Reads before turning the bus around for writes
system.mem_ctrls.rdPerTurnAround::104-111            2      0.31%     98.29% # Reads before turning the bus around for writes
system.mem_ctrls.rdPerTurnAround::112-119            2      0.31%     98.60% # Reads before turning the bus around for writes
system.mem_ctrls.rdPerTurnAround::120-127            3      0.47%     99.07% # Reads before turning the bus around for writes
system.mem_ctrls.rdPerTurnAround::128-135            2      0.31%     99.38% # Reads before turning the bus around for writes
system.mem_ctrls.rdPerTurnAround::136-143            1      0.16%     99.53% # Reads before turning the bus around for writes
system.mem_ctrls.rdPerTurnAround::152-159            1      0.16%     99.69% # Reads before turning the bus around for writes
system.mem_ctrls.rdPerTurnAround::200-207            1      0.16%     99.84% # Reads before turning the bus around for writes
system.mem_ctrls.rdPerTurnAround::216-223            1      0.16%    100.00% # Reads before turning the bus around for writes
system.mem_ctrls.rdPerTurnAround::total           643                       # Reads before turning the bus around for writes
system.mem_ctrls.wrPerTurnAround::samples          643                       # Writes before turning the bus around for reads
system.mem_ctrls.wrPerTurnAround::mean      16.167963                       # Writes before turning the bus around for reads
system.mem_ctrls.wrPerTurnAround::gmean     16.156414                       # Writes before turning the bus around for reads
system.mem_ctrls.wrPerTurnAround::stdev      0.643515                       # Writes before turning the bus around for reads
system.mem_ctrls.wrPerTurnAround::16              595     92.53%     92.53% # Writes before turning the bus around for reads
system.mem_ctrls.wrPerTurnAround::17               10      1.56%     94.09% # Writes before turning the bus around for reads
system.mem_ctrls.wrPerTurnAround::18               20      3.11%     97.20% # Writes before turning the bus around for reads
system.mem_ctrls.wrPerTurnAround::19               16      2.49%     99.69% # Writes before turning the bus around for reads
system.mem_ctrls.wrPerTurnAround::21                2      0.31%    100.00% # Writes before turning the bus around for reads
system.mem_ctrls.wrPerTurnAround::total           643                       # Writes before turning the bus around for reads
system.mem_ctrls.totQLat                    515323500                       # Total ticks spent queuing
system.mem_ctrls.totMemAccLat               976817250                       # Total ticks spent from burst creation until serviced by the DRAM
system.mem_ctrls.totBusLat                  123065000                       # Total ticks spent in databus transfers
system.mem_ctrls.avgQLat                     20937.05                       # Average queueing delay per DRAM burst
system.mem_ctrls.avgBusLat                    5000.00                       # Average bus latency per DRAM burst
system.mem_ctrls.avgMemAccLat                39687.05                       # Average memory access latency per DRAM burst
system.mem_ctrls.avgRdBW                      1324.56                       # Average DRAM read bandwidth in MiByte/s
system.mem_ctrls.avgWrBW                       559.47                       # Average achieved write bandwidth in MiByte/s
system.mem_ctrls.avgRdBWSys                   1328.22                       # Average system read bandwidth in MiByte/s
system.mem_ctrls.avgWrBWSys                    560.76                       # Average system write bandwidth in MiByte/s
system.mem_ctrls.peakBW                      12800.00                       # Theoretical peak bandwidth in MiByte/s
system.mem_ctrls.busUtil                        14.72                       # Data bus utilization in percentage
system.mem_ctrls.busUtilRead                    10.35                       # Data bus utilization in percentage for reads
system.mem_ctrls.busUtilWrite                    4.37                       # Data bus utilization in percentage for writes
system.mem_ctrls.avgRdQLen                       1.94                       # Average read queue length when enqueuing
system.mem_ctrls.avgWrQLen                      25.76                       # Average write queue length when enqueuing
system.mem_ctrls.readRowHits                    18341                       # Number of row buffer hits during reads
system.mem_ctrls.writeRowHits                    7425                       # Number of row buffer hits during writes
system.mem_ctrls.readRowHitRate                 74.52                       # Row buffer hit rate for reads
system.mem_ctrls.writeRowHitRate                71.26                       # Row buffer hit rate for writes
system.mem_ctrls.avgGap                      33878.27                       # Average gap between requests
system.mem_ctrls.pageHitRate                    73.55                       # Row buffer hit rate, read and write combined
system.mem_ctrls_0.actEnergy                 27336960                       # Energy for activate commands per rank (pJ)
system.mem_ctrls_0.preEnergy                 14916000                       # Energy for precharge commands per rank (pJ)
system.mem_ctrls_0.readEnergy                83522400                       # Energy for read commands per rank (pJ)
system.mem_ctrls_0.writeEnergy               22096800                       # Energy for write commands per rank (pJ)
system.mem_ctrls_0.refreshEnergy             77301120                       # Energy for refresh commands per rank (pJ)
system.mem_ctrls_0.actBackEnergy            783126990                       # Energy for active background per rank (pJ)
system.mem_ctrls_0.preBackEnergy             23308500                       # Energy for precharge background per rank (pJ)
system.mem_ctrls_0.totalEnergy             1031608770                       # Total energy per rank (pJ)
system.mem_ctrls_0.averagePower            871.460478                       # Core power per rank (mW)
system.mem_ctrls_0.memoryStateTime::IDLE     33791500                       # Time in different power states
system.mem_ctrls_0.memoryStateTime::REF      39520000                       # Time in different power states
system.mem_ctrls_0.memoryStateTime::PRE_PDN            0                       # Time in different power states
system.mem_ctrls_0.memoryStateTime::ACT    1110472250                       # Time in different power states
system.mem_ctrls_0.memoryStateTime::ACT_PDN            0                       # Time in different power states
system.mem_ctrls_1.actEnergy                 42101640                       # Energy for activate commands per rank (pJ)
system.mem_ctrls_1.preEnergy                 22972125                       # Energy for precharge commands per rank (pJ)
system.mem_ctrls_1.readEnergy               107725800                       # Energy for read commands per rank (pJ)
system.mem_ctrls_1.writeEnergy               44958240                       # Energy for write commands per rank (pJ)
system.mem_ctrls_1.refreshEnergy             77301120                       # Energy for refresh commands per rank (pJ)
system.mem_ctrls_1.actBackEnergy            788268105                       # Energy for active background per rank (pJ)
system.mem_ctrls_1.preBackEnergy             18798750                       # Energy for precharge background per rank (pJ)
system.mem_ctrls_1.totalEnergy             1102125780                       # Total energy per rank (pJ)
system.mem_ctrls_1.averagePower            931.030335                       # Core power per rank (mW)
system.mem_ctrls_1.memoryStateTime::IDLE     26091750                       # Time in different power states
system.mem_ctrls_1.memoryStateTime::REF      39520000                       # Time in different power states
system.mem_ctrls_1.memoryStateTime::PRE_PDN            0                       # Time in different power states
system.mem_ctrls_1.memoryStateTime::ACT    1118172000                       # Time in different power states
system.mem_ctrls_1.memoryStateTime::ACT_PDN            0                       # Time in different power states
system.cpu_voltage_domain.voltage                   1                       # Voltage in Volts
system.cpu_clk_domain.clock                       500                       # Clock period in ticks
system.cpu0.dtb.fetch_hits                          0                       # ITB hits
system.cpu0.dtb.fetch_misses                        0                       # ITB misses
system.cpu0.dtb.fetch_acv                           0                       # ITB acv
system.cpu0.dtb.fetch_accesses                      0                       # ITB accesses
system.cpu0.dtb.read_hits                           0                       # DTB read hits
system.cpu0.dtb.read_misses                         0                       # DTB read misses
system.cpu0.dtb.read_acv                            0                       # DTB read access violations
system.cpu0.dtb.read_accesses                       0                       # DTB read accesses
system.cpu0.dtb.write_hits                          0                       # DTB write hits
system.cpu0.dtb.write_misses                        0                       # DTB write misses
system.cpu0.dtb.write_acv                           0                       # DTB write access violations
system.cpu0.dtb.write_accesses                      0                       # DTB write accesses
system.cpu0.dtb.data_hits                           0                       # DTB hits
system.cpu0.dtb.data_misses                         0                       # DTB misses
system.cpu0.dtb.data_acv                            0                       # DTB access violations
system.cpu0.dtb.data_accesses                       0                       # DTB accesses
system.cpu0.itb.fetch_hits                          0                       # ITB hits
system.cpu0.itb.fetch_misses                        0                       # ITB misses
system.cpu0.itb.fetch_acv                           0                       # ITB acv
system.cpu0.itb.fetch_accesses                      0                       # ITB accesses
system.cpu0.itb.read_hits                           0                       # DTB read hits
system.cpu0.itb.read_misses                         0                       # DTB read misses
system.cpu0.itb.read_acv                            0                       # DTB read access violations
system.cpu0.itb.read_accesses                       0                       # DTB read accesses
system.cpu0.itb.write_hits                          0                       # DTB write hits
system.cpu0.itb.write_misses                        0                       # DTB write misses
system.cpu0.itb.write_acv                           0                       # DTB write access violations
system.cpu0.itb.write_accesses                      0                       # DTB write accesses
system.cpu0.itb.data_hits                           0                       # DTB hits
system.cpu0.itb.data_misses                         0                       # DTB misses
system.cpu0.itb.data_acv                            0                       # DTB access violations
system.cpu0.itb.data_accesses                       0                       # DTB accesses
system.cpu0.numCycles                               0                       # number of cpu cycles simulated
system.cpu0.numWorkItemsStarted                     0                       # number of work items this cpu started
system.cpu0.numWorkItemsCompleted                   0                       # number of work items this cpu completed
system.cpu0.committedInsts                          0                       # Number of instructions committed
system.cpu0.committedOps                            0                       # Number of ops (including micro ops) committed
system.cpu0.num_int_alu_accesses                    0                       # Number of integer alu accesses
system.cpu0.num_fp_alu_accesses                     0                       # Number of float alu accesses
system.cpu0.num_func_calls                          0                       # number of times a function call or return occured
system.cpu0.num_conditional_control_insts            0                       # number of instructions that are conditional controls
system.cpu0.num_int_insts                           0                       # number of integer instructions
system.cpu0.num_fp_insts                            0                       # number of float instructions
system.cpu0.num_int_register_reads                  0                       # number of times the integer registers were read
system.cpu0.num_int_register_writes                 0                       # number of times the integer registers were written
system.cpu0.num_fp_register_reads                   0                       # number of times the floating registers were read
system.cpu0.num_fp_register_writes                  0                       # number of times the floating registers were written
system.cpu0.num_mem_refs                            0                       # number of memory refs
system.cpu0.num_load_insts                          0                       # Number of load instructions
system.cpu0.num_store_insts                         0                       # Number of store instructions
system.cpu0.num_idle_cycles                         0                       # Number of idle cycles
system.cpu0.num_busy_cycles                         0                       # Number of busy cycles
system.cpu0.not_idle_fraction                       1                       # Percentage of non-idle cycles
system.cpu0.idle_fraction                           0                       # Percentage of idle cycles
system.cpu0.op_class::No_OpClass                    0                       # Class of executed instruction
system.cpu0.op_class::IntAlu                        0                       # Class of executed instruction
system.cpu0.op_class::IntMult                       0                       # Class of executed instruction
system.cpu0.op_class::IntDiv                        0                       # Class of executed instruction
system.cpu0.op_class::FloatAdd                      0                       # Class of executed instruction
system.cpu0.op_class::FloatCmp                      0                       # Class of executed instruction
system.cpu0.op_class::FloatCvt                      0                       # Class of executed instruction
system.cpu0.op_class::FloatMult                     0                       # Class of executed instruction
system.cpu0.op_class::FloatDiv                      0                       # Class of executed instruction
system.cpu0.op_class::FloatSqrt                     0                       # Class of executed instruction
system.cpu0.op_class::SimdAdd                       0                       # Class of executed instruction
system.cpu0.op_class::SimdAddAcc                    0                       # Class of executed instruction
system.cpu0.op_class::SimdAlu                       0                       # Class of executed instruction
system.cpu0.op_class::SimdCmp                       0                       # Class of executed instruction
system.cpu0.op_class::SimdCvt                       0                       # Class of executed instruction
system.cpu0.op_class::SimdMisc                      0                       # Class of executed instruction
system.cpu0.op_class::SimdMult                      0                       # Class of executed instruction
system.cpu0.op_class::SimdMultAcc                   0                       # Class of executed instruction
system.cpu0.op_class::SimdShift                     0                       # Class of executed instruction
system.cpu0.op_class::SimdShiftAcc                  0                       # Class of executed instruction
system.cpu0.op_class::SimdSqrt                      0                       # Class of executed instruction
system.cpu0.op_class::SimdFloatAdd                  0                       # Class of executed instruction
system.cpu0.op_class::SimdFloatAlu                  0                       # Class of executed instruction
system.cpu0.op_class::SimdFloatCmp                  0                       # Class of executed instruction
system.cpu0.op_class::SimdFloatCvt                  0                       # Class of executed instruction
system.cpu0.op_class::SimdFloatDiv                  0                       # Class of executed instruction
system.cpu0.op_class::SimdFloatMisc                 0                       # Class of executed instruction
system.cpu0.op_class::SimdFloatMult                 0                       # Class of executed instruction
system.cpu0.op_class::SimdFloatMultAcc              0                       # Class of executed instruction
system.cpu0.op_class::SimdFloatSqrt                 0                       # Class of executed instruction
system.cpu0.op_class::MemRead                       0                       # Class of executed instruction
system.cpu0.op_class::MemWrite                      0                       # Class of executed instruction
system.cpu0.op_class::IprAccess                     0                       # Class of executed instruction
system.cpu0.op_class::InstPrefetch                  0                       # Class of executed instruction
system.cpu0.op_class::total                         0                       # Class of executed instruction
system.cpu0.kern.inst.arm                           0                       # number of arm instructions executed
system.cpu0.kern.inst.quiesce                       3                       # number of quiesce instructions executed
system.cpu0.kern.inst.hwrei                       597                       # number of hwrei instructions executed
system.cpu0.kern.ipl_count::0                     168     46.28%     46.28% # number of times we switched to this ipl
system.cpu0.kern.ipl_count::22                      1      0.28%     46.56% # number of times we switched to this ipl
system.cpu0.kern.ipl_count::30                      1      0.28%     46.83% # number of times we switched to this ipl
system.cpu0.kern.ipl_count::31                    193     53.17%    100.00% # number of times we switched to this ipl
system.cpu0.kern.ipl_count::total                 363                       # number of times we switched to this ipl
system.cpu0.kern.ipl_good::0                      168     49.85%     49.85% # number of times we switched to this ipl from a different ipl
system.cpu0.kern.ipl_good::22                       1      0.30%     50.15% # number of times we switched to this ipl from a different ipl
system.cpu0.kern.ipl_good::30                       1      0.30%     50.45% # number of times we switched to this ipl from a different ipl
system.cpu0.kern.ipl_good::31                     167     49.55%    100.00% # number of times we switched to this ipl from a different ipl
system.cpu0.kern.ipl_good::total                  337                       # number of times we switched to this ipl from a different ipl
system.cpu0.kern.ipl_ticks::0               495914000     88.31%     88.31% # number of cycles we spent at this ipl
system.cpu0.kern.ipl_ticks::22                 852500      0.15%     88.46% # number of cycles we spent at this ipl
system.cpu0.kern.ipl_ticks::30                1936000      0.34%     88.81% # number of cycles we spent at this ipl
system.cpu0.kern.ipl_ticks::31               62861500     11.19%    100.00% # number of cycles we spent at this ipl
system.cpu0.kern.ipl_ticks::total           561564000                       # number of cycles we spent at this ipl
system.cpu0.kern.ipl_used::0                        1                       # fraction of swpipl calls that actually changed the ipl
system.cpu0.kern.ipl_used::22                       1                       # fraction of swpipl calls that actually changed the ipl
system.cpu0.kern.ipl_used::30                       1                       # fraction of swpipl calls that actually changed the ipl
system.cpu0.kern.ipl_used::31                0.865285                       # fraction of swpipl calls that actually changed the ipl
system.cpu0.kern.ipl_used::total             0.928375                       # fraction of swpipl calls that actually changed the ipl
system.cpu0.kern.syscall::2                         1     33.33%     33.33% # number of syscalls executed
system.cpu0.kern.syscall::3                         1     33.33%     66.67% # number of syscalls executed
system.cpu0.kern.syscall::19                        1     33.33%    100.00% # number of syscalls executed
system.cpu0.kern.syscall::total                     3                       # number of syscalls executed
system.cpu0.kern.callpal::wripir                    1      0.26%      0.26% # number of callpals executed
system.cpu0.kern.callpal::swpctx                   12      3.08%      3.34% # number of callpals executed
system.cpu0.kern.callpal::tbi                       2      0.51%      3.86% # number of callpals executed
system.cpu0.kern.callpal::swpipl                  342     87.92%     91.77% # number of callpals executed
system.cpu0.kern.callpal::rdps                      2      0.51%     92.29% # number of callpals executed
system.cpu0.kern.callpal::rdusp                     1      0.26%     92.54% # number of callpals executed
system.cpu0.kern.callpal::rti                      19      4.88%     97.43% # number of callpals executed
system.cpu0.kern.callpal::callsys                   9      2.31%     99.74% # number of callpals executed
system.cpu0.kern.callpal::imb                       1      0.26%    100.00% # number of callpals executed
system.cpu0.kern.callpal::total                   389                       # number of callpals executed
system.cpu0.kern.mode_switch::kernel               32                       # number of protection mode switches
system.cpu0.kern.mode_switch::user                 17                       # number of protection mode switches
system.cpu0.kern.mode_switch::idle                  0                       # number of protection mode switches
system.cpu0.kern.mode_good::kernel                 18                      
system.cpu0.kern.mode_good::user                   17                      
system.cpu0.kern.mode_good::idle                    0                      
system.cpu0.kern.mode_switch_good::kernel     0.562500                       # fraction of useful protection mode switches
system.cpu0.kern.mode_switch_good::user             1                       # fraction of useful protection mode switches
system.cpu0.kern.mode_switch_good::idle           nan                       # fraction of useful protection mode switches
system.cpu0.kern.mode_switch_good::total     0.714286                       # fraction of useful protection mode switches
system.cpu0.kern.mode_ticks::kernel         244404000     73.98%     73.98% # number of ticks spent at the given mode
system.cpu0.kern.mode_ticks::user            85943500     26.02%    100.00% # number of ticks spent at the given mode
system.cpu0.kern.mode_ticks::idle                   0      0.00%    100.00% # number of ticks spent at the given mode
system.cpu0.kern.swap_context                      12                       # number of times the context was actually changed
system.cpu0.dcache.tags.replacements             4849                       # number of replacements
system.cpu0.dcache.tags.tagsinuse          504.888015                       # Cycle average of tags in use
system.cpu0.dcache.tags.total_refs              55835                       # Total number of references to valid blocks.
system.cpu0.dcache.tags.sampled_refs             4849                       # Sample count of references to valid blocks.
system.cpu0.dcache.tags.avg_refs            11.514745                       # Average number of references to valid blocks.
system.cpu0.dcache.tags.warmup_cycle                0                       # Cycle when the warmup percentage was hit.
system.cpu0.dcache.tags.occ_blocks::cpu0.data    23.987339                       # Average occupied blocks per requestor
system.cpu0.dcache.tags.occ_blocks::switch_cpus0.data   480.900676                       # Average occupied blocks per requestor
system.cpu0.dcache.tags.occ_percent::cpu0.data     0.046850                       # Average percentage of cache occupancy
system.cpu0.dcache.tags.occ_percent::switch_cpus0.data     0.939259                       # Average percentage of cache occupancy
system.cpu0.dcache.tags.occ_percent::total     0.986109                       # Average percentage of cache occupancy
system.cpu0.dcache.tags.occ_task_id_blocks::1024          500                       # Occupied blocks per task id
system.cpu0.dcache.tags.age_task_id_blocks_1024::2          491                       # Occupied blocks per task id
system.cpu0.dcache.tags.age_task_id_blocks_1024::3            9                       # Occupied blocks per task id
system.cpu0.dcache.tags.occ_task_id_percent::1024     0.976562                       # Percentage of cache occupancy per task id
system.cpu0.dcache.tags.tag_accesses           288348                       # Number of tag accesses
system.cpu0.dcache.tags.data_accesses          288348                       # Number of data accesses
system.cpu0.dcache.ReadReq_hits::switch_cpus0.data        32703                       # number of ReadReq hits
system.cpu0.dcache.ReadReq_hits::total          32703                       # number of ReadReq hits
system.cpu0.dcache.WriteReq_hits::switch_cpus0.data        13660                       # number of WriteReq hits
system.cpu0.dcache.WriteReq_hits::total         13660                       # number of WriteReq hits
system.cpu0.dcache.LoadLockedReq_hits::switch_cpus0.data          535                       # number of LoadLockedReq hits
system.cpu0.dcache.LoadLockedReq_hits::total          535                       # number of LoadLockedReq hits
system.cpu0.dcache.StoreCondReq_hits::switch_cpus0.data          594                       # number of StoreCondReq hits
system.cpu0.dcache.StoreCondReq_hits::total          594                       # number of StoreCondReq hits
system.cpu0.dcache.demand_hits::switch_cpus0.data        46363                       # number of demand (read+write) hits
system.cpu0.dcache.demand_hits::total           46363                       # number of demand (read+write) hits
system.cpu0.dcache.overall_hits::switch_cpus0.data        46363                       # number of overall hits
system.cpu0.dcache.overall_hits::total          46363                       # number of overall hits
system.cpu0.dcache.ReadReq_misses::switch_cpus0.data         8762                       # number of ReadReq misses
system.cpu0.dcache.ReadReq_misses::total         8762                       # number of ReadReq misses
system.cpu0.dcache.WriteReq_misses::switch_cpus0.data        14425                       # number of WriteReq misses
system.cpu0.dcache.WriteReq_misses::total        14425                       # number of WriteReq misses
system.cpu0.dcache.LoadLockedReq_misses::switch_cpus0.data          159                       # number of LoadLockedReq misses
system.cpu0.dcache.LoadLockedReq_misses::total          159                       # number of LoadLockedReq misses
system.cpu0.dcache.StoreCondReq_misses::switch_cpus0.data           25                       # number of StoreCondReq misses
system.cpu0.dcache.StoreCondReq_misses::total           25                       # number of StoreCondReq misses
system.cpu0.dcache.demand_misses::switch_cpus0.data        23187                       # number of demand (read+write) misses
system.cpu0.dcache.demand_misses::total         23187                       # number of demand (read+write) misses
system.cpu0.dcache.overall_misses::switch_cpus0.data        23187                       # number of overall misses
system.cpu0.dcache.overall_misses::total        23187                       # number of overall misses
system.cpu0.dcache.ReadReq_miss_latency::switch_cpus0.data    541377469                       # number of ReadReq miss cycles
system.cpu0.dcache.ReadReq_miss_latency::total    541377469                       # number of ReadReq miss cycles
system.cpu0.dcache.WriteReq_miss_latency::switch_cpus0.data   1107103967                       # number of WriteReq miss cycles
system.cpu0.dcache.WriteReq_miss_latency::total   1107103967                       # number of WriteReq miss cycles
system.cpu0.dcache.LoadLockedReq_miss_latency::switch_cpus0.data     11049749                       # number of LoadLockedReq miss cycles
system.cpu0.dcache.LoadLockedReq_miss_latency::total     11049749                       # number of LoadLockedReq miss cycles
system.cpu0.dcache.StoreCondReq_miss_latency::switch_cpus0.data       228503                       # number of StoreCondReq miss cycles
system.cpu0.dcache.StoreCondReq_miss_latency::total       228503                       # number of StoreCondReq miss cycles
system.cpu0.dcache.demand_miss_latency::switch_cpus0.data   1648481436                       # number of demand (read+write) miss cycles
system.cpu0.dcache.demand_miss_latency::total   1648481436                       # number of demand (read+write) miss cycles
system.cpu0.dcache.overall_miss_latency::switch_cpus0.data   1648481436                       # number of overall miss cycles
system.cpu0.dcache.overall_miss_latency::total   1648481436                       # number of overall miss cycles
system.cpu0.dcache.ReadReq_accesses::switch_cpus0.data        41465                       # number of ReadReq accesses(hits+misses)
system.cpu0.dcache.ReadReq_accesses::total        41465                       # number of ReadReq accesses(hits+misses)
system.cpu0.dcache.WriteReq_accesses::switch_cpus0.data        28085                       # number of WriteReq accesses(hits+misses)
system.cpu0.dcache.WriteReq_accesses::total        28085                       # number of WriteReq accesses(hits+misses)
system.cpu0.dcache.LoadLockedReq_accesses::switch_cpus0.data          694                       # number of LoadLockedReq accesses(hits+misses)
system.cpu0.dcache.LoadLockedReq_accesses::total          694                       # number of LoadLockedReq accesses(hits+misses)
system.cpu0.dcache.StoreCondReq_accesses::switch_cpus0.data          619                       # number of StoreCondReq accesses(hits+misses)
system.cpu0.dcache.StoreCondReq_accesses::total          619                       # number of StoreCondReq accesses(hits+misses)
system.cpu0.dcache.demand_accesses::switch_cpus0.data        69550                       # number of demand (read+write) accesses
system.cpu0.dcache.demand_accesses::total        69550                       # number of demand (read+write) accesses
system.cpu0.dcache.overall_accesses::switch_cpus0.data        69550                       # number of overall (read+write) accesses
system.cpu0.dcache.overall_accesses::total        69550                       # number of overall (read+write) accesses
system.cpu0.dcache.ReadReq_miss_rate::switch_cpus0.data     0.211311                       # miss rate for ReadReq accesses
system.cpu0.dcache.ReadReq_miss_rate::total     0.211311                       # miss rate for ReadReq accesses
system.cpu0.dcache.WriteReq_miss_rate::switch_cpus0.data     0.513619                       # miss rate for WriteReq accesses
system.cpu0.dcache.WriteReq_miss_rate::total     0.513619                       # miss rate for WriteReq accesses
system.cpu0.dcache.LoadLockedReq_miss_rate::switch_cpus0.data     0.229107                       # miss rate for LoadLockedReq accesses
system.cpu0.dcache.LoadLockedReq_miss_rate::total     0.229107                       # miss rate for LoadLockedReq accesses
system.cpu0.dcache.StoreCondReq_miss_rate::switch_cpus0.data     0.040388                       # miss rate for StoreCondReq accesses
system.cpu0.dcache.StoreCondReq_miss_rate::total     0.040388                       # miss rate for StoreCondReq accesses
system.cpu0.dcache.demand_miss_rate::switch_cpus0.data     0.333386                       # miss rate for demand accesses
system.cpu0.dcache.demand_miss_rate::total     0.333386                       # miss rate for demand accesses
system.cpu0.dcache.overall_miss_rate::switch_cpus0.data     0.333386                       # miss rate for overall accesses
system.cpu0.dcache.overall_miss_rate::total     0.333386                       # miss rate for overall accesses
system.cpu0.dcache.ReadReq_avg_miss_latency::switch_cpus0.data 61786.974321                       # average ReadReq miss latency
system.cpu0.dcache.ReadReq_avg_miss_latency::total 61786.974321                       # average ReadReq miss latency
system.cpu0.dcache.WriteReq_avg_miss_latency::switch_cpus0.data 76748.975182                       # average WriteReq miss latency
system.cpu0.dcache.WriteReq_avg_miss_latency::total 76748.975182                       # average WriteReq miss latency
system.cpu0.dcache.LoadLockedReq_avg_miss_latency::switch_cpus0.data 69495.276730                       # average LoadLockedReq miss latency
system.cpu0.dcache.LoadLockedReq_avg_miss_latency::total 69495.276730                       # average LoadLockedReq miss latency
system.cpu0.dcache.StoreCondReq_avg_miss_latency::switch_cpus0.data  9140.120000                       # average StoreCondReq miss latency
system.cpu0.dcache.StoreCondReq_avg_miss_latency::total  9140.120000                       # average StoreCondReq miss latency
system.cpu0.dcache.demand_avg_miss_latency::switch_cpus0.data 71095.072066                       # average overall miss latency
system.cpu0.dcache.demand_avg_miss_latency::total 71095.072066                       # average overall miss latency
system.cpu0.dcache.overall_avg_miss_latency::switch_cpus0.data 71095.072066                       # average overall miss latency
system.cpu0.dcache.overall_avg_miss_latency::total 71095.072066                       # average overall miss latency
system.cpu0.dcache.blocked_cycles::no_mshrs        97481                       # number of cycles access was blocked
system.cpu0.dcache.blocked_cycles::no_targets           27                       # number of cycles access was blocked
system.cpu0.dcache.blocked::no_mshrs             1983                       # number of cycles access was blocked
system.cpu0.dcache.blocked::no_targets              1                       # number of cycles access was blocked
system.cpu0.dcache.avg_blocked_cycles::no_mshrs    49.158346                       # average number of cycles each access was blocked
system.cpu0.dcache.avg_blocked_cycles::no_targets           27                       # average number of cycles each access was blocked
system.cpu0.dcache.fast_writes                      0                       # number of fast writes performed
system.cpu0.dcache.cache_copies                     0                       # number of cache copies performed
system.cpu0.dcache.writebacks::writebacks         2795                       # number of writebacks
system.cpu0.dcache.writebacks::total             2795                       # number of writebacks
system.cpu0.dcache.ReadReq_mshr_hits::switch_cpus0.data         5978                       # number of ReadReq MSHR hits
system.cpu0.dcache.ReadReq_mshr_hits::total         5978                       # number of ReadReq MSHR hits
system.cpu0.dcache.WriteReq_mshr_hits::switch_cpus0.data        12347                       # number of WriteReq MSHR hits
system.cpu0.dcache.WriteReq_mshr_hits::total        12347                       # number of WriteReq MSHR hits
system.cpu0.dcache.LoadLockedReq_mshr_hits::switch_cpus0.data           56                       # number of LoadLockedReq MSHR hits
system.cpu0.dcache.LoadLockedReq_mshr_hits::total           56                       # number of LoadLockedReq MSHR hits
system.cpu0.dcache.demand_mshr_hits::switch_cpus0.data        18325                       # number of demand (read+write) MSHR hits
system.cpu0.dcache.demand_mshr_hits::total        18325                       # number of demand (read+write) MSHR hits
system.cpu0.dcache.overall_mshr_hits::switch_cpus0.data        18325                       # number of overall MSHR hits
system.cpu0.dcache.overall_mshr_hits::total        18325                       # number of overall MSHR hits
system.cpu0.dcache.ReadReq_mshr_misses::switch_cpus0.data         2784                       # number of ReadReq MSHR misses
system.cpu0.dcache.ReadReq_mshr_misses::total         2784                       # number of ReadReq MSHR misses
system.cpu0.dcache.WriteReq_mshr_misses::switch_cpus0.data         2078                       # number of WriteReq MSHR misses
system.cpu0.dcache.WriteReq_mshr_misses::total         2078                       # number of WriteReq MSHR misses
system.cpu0.dcache.LoadLockedReq_mshr_misses::switch_cpus0.data          103                       # number of LoadLockedReq MSHR misses
system.cpu0.dcache.LoadLockedReq_mshr_misses::total          103                       # number of LoadLockedReq MSHR misses
system.cpu0.dcache.StoreCondReq_mshr_misses::switch_cpus0.data           25                       # number of StoreCondReq MSHR misses
system.cpu0.dcache.StoreCondReq_mshr_misses::total           25                       # number of StoreCondReq MSHR misses
system.cpu0.dcache.demand_mshr_misses::switch_cpus0.data         4862                       # number of demand (read+write) MSHR misses
system.cpu0.dcache.demand_mshr_misses::total         4862                       # number of demand (read+write) MSHR misses
system.cpu0.dcache.overall_mshr_misses::switch_cpus0.data         4862                       # number of overall MSHR misses
system.cpu0.dcache.overall_mshr_misses::total         4862                       # number of overall MSHR misses
system.cpu0.dcache.WriteReq_mshr_uncacheable::switch_cpus0.data            3                       # number of WriteReq MSHR uncacheable
system.cpu0.dcache.WriteReq_mshr_uncacheable::total            3                       # number of WriteReq MSHR uncacheable
system.cpu0.dcache.overall_mshr_uncacheable_misses::switch_cpus0.data            3                       # number of overall MSHR uncacheable misses
system.cpu0.dcache.overall_mshr_uncacheable_misses::total            3                       # number of overall MSHR uncacheable misses
system.cpu0.dcache.ReadReq_mshr_miss_latency::switch_cpus0.data    198424276                       # number of ReadReq MSHR miss cycles
system.cpu0.dcache.ReadReq_mshr_miss_latency::total    198424276                       # number of ReadReq MSHR miss cycles
system.cpu0.dcache.WriteReq_mshr_miss_latency::switch_cpus0.data    177020787                       # number of WriteReq MSHR miss cycles
system.cpu0.dcache.WriteReq_mshr_miss_latency::total    177020787                       # number of WriteReq MSHR miss cycles
system.cpu0.dcache.LoadLockedReq_mshr_miss_latency::switch_cpus0.data      7452751                       # number of LoadLockedReq MSHR miss cycles
system.cpu0.dcache.LoadLockedReq_mshr_miss_latency::total      7452751                       # number of LoadLockedReq MSHR miss cycles
system.cpu0.dcache.StoreCondReq_mshr_miss_latency::switch_cpus0.data       190997                       # number of StoreCondReq MSHR miss cycles
system.cpu0.dcache.StoreCondReq_mshr_miss_latency::total       190997                       # number of StoreCondReq MSHR miss cycles
system.cpu0.dcache.demand_mshr_miss_latency::switch_cpus0.data    375445063                       # number of demand (read+write) MSHR miss cycles
system.cpu0.dcache.demand_mshr_miss_latency::total    375445063                       # number of demand (read+write) MSHR miss cycles
system.cpu0.dcache.overall_mshr_miss_latency::switch_cpus0.data    375445063                       # number of overall MSHR miss cycles
system.cpu0.dcache.overall_mshr_miss_latency::total    375445063                       # number of overall MSHR miss cycles
system.cpu0.dcache.WriteReq_mshr_uncacheable_latency::switch_cpus0.data       671000                       # number of WriteReq MSHR uncacheable cycles
system.cpu0.dcache.WriteReq_mshr_uncacheable_latency::total       671000                       # number of WriteReq MSHR uncacheable cycles
system.cpu0.dcache.overall_mshr_uncacheable_latency::switch_cpus0.data       671000                       # number of overall MSHR uncacheable cycles
system.cpu0.dcache.overall_mshr_uncacheable_latency::total       671000                       # number of overall MSHR uncacheable cycles
system.cpu0.dcache.ReadReq_mshr_miss_rate::switch_cpus0.data     0.067141                       # mshr miss rate for ReadReq accesses
system.cpu0.dcache.ReadReq_mshr_miss_rate::total     0.067141                       # mshr miss rate for ReadReq accesses
system.cpu0.dcache.WriteReq_mshr_miss_rate::switch_cpus0.data     0.073990                       # mshr miss rate for WriteReq accesses
system.cpu0.dcache.WriteReq_mshr_miss_rate::total     0.073990                       # mshr miss rate for WriteReq accesses
system.cpu0.dcache.LoadLockedReq_mshr_miss_rate::switch_cpus0.data     0.148415                       # mshr miss rate for LoadLockedReq accesses
system.cpu0.dcache.LoadLockedReq_mshr_miss_rate::total     0.148415                       # mshr miss rate for LoadLockedReq accesses
system.cpu0.dcache.StoreCondReq_mshr_miss_rate::switch_cpus0.data     0.040388                       # mshr miss rate for StoreCondReq accesses
system.cpu0.dcache.StoreCondReq_mshr_miss_rate::total     0.040388                       # mshr miss rate for StoreCondReq accesses
system.cpu0.dcache.demand_mshr_miss_rate::switch_cpus0.data     0.069907                       # mshr miss rate for demand accesses
system.cpu0.dcache.demand_mshr_miss_rate::total     0.069907                       # mshr miss rate for demand accesses
system.cpu0.dcache.overall_mshr_miss_rate::switch_cpus0.data     0.069907                       # mshr miss rate for overall accesses
system.cpu0.dcache.overall_mshr_miss_rate::total     0.069907                       # mshr miss rate for overall accesses
system.cpu0.dcache.ReadReq_avg_mshr_miss_latency::switch_cpus0.data 71273.087644                       # average ReadReq mshr miss latency
system.cpu0.dcache.ReadReq_avg_mshr_miss_latency::total 71273.087644                       # average ReadReq mshr miss latency
system.cpu0.dcache.WriteReq_avg_mshr_miss_latency::switch_cpus0.data 85188.059192                       # average WriteReq mshr miss latency
system.cpu0.dcache.WriteReq_avg_mshr_miss_latency::total 85188.059192                       # average WriteReq mshr miss latency
system.cpu0.dcache.LoadLockedReq_avg_mshr_miss_latency::switch_cpus0.data 72356.805825                       # average LoadLockedReq mshr miss latency
system.cpu0.dcache.LoadLockedReq_avg_mshr_miss_latency::total 72356.805825                       # average LoadLockedReq mshr miss latency
system.cpu0.dcache.StoreCondReq_avg_mshr_miss_latency::switch_cpus0.data  7639.880000                       # average StoreCondReq mshr miss latency
system.cpu0.dcache.StoreCondReq_avg_mshr_miss_latency::total  7639.880000                       # average StoreCondReq mshr miss latency
system.cpu0.dcache.demand_avg_mshr_miss_latency::switch_cpus0.data 77220.292678                       # average overall mshr miss latency
system.cpu0.dcache.demand_avg_mshr_miss_latency::total 77220.292678                       # average overall mshr miss latency
system.cpu0.dcache.overall_avg_mshr_miss_latency::switch_cpus0.data 77220.292678                       # average overall mshr miss latency
system.cpu0.dcache.overall_avg_mshr_miss_latency::total 77220.292678                       # average overall mshr miss latency
system.cpu0.dcache.WriteReq_avg_mshr_uncacheable_latency::switch_cpus0.data 223666.666667                       # average WriteReq mshr uncacheable latency
system.cpu0.dcache.WriteReq_avg_mshr_uncacheable_latency::total 223666.666667                       # average WriteReq mshr uncacheable latency
system.cpu0.dcache.overall_avg_mshr_uncacheable_latency::switch_cpus0.data 223666.666667                       # average overall mshr uncacheable latency
system.cpu0.dcache.overall_avg_mshr_uncacheable_latency::total 223666.666667                       # average overall mshr uncacheable latency
system.cpu0.dcache.no_allocate_misses               0                       # Number of misses that were no-allocate
system.cpu0.icache.tags.replacements             3513                       # number of replacements
system.cpu0.icache.tags.tagsinuse          511.675197                       # Cycle average of tags in use
system.cpu0.icache.tags.total_refs             260945                       # Total number of references to valid blocks.
system.cpu0.icache.tags.sampled_refs             3513                       # Sample count of references to valid blocks.
system.cpu0.icache.tags.avg_refs            74.279818                       # Average number of references to valid blocks.
system.cpu0.icache.tags.warmup_cycle                0                       # Cycle when the warmup percentage was hit.
system.cpu0.icache.tags.occ_blocks::cpu0.inst    20.061416                       # Average occupied blocks per requestor
system.cpu0.icache.tags.occ_blocks::switch_cpus0.inst   491.613780                       # Average occupied blocks per requestor
system.cpu0.icache.tags.occ_percent::cpu0.inst     0.039182                       # Average percentage of cache occupancy
system.cpu0.icache.tags.occ_percent::switch_cpus0.inst     0.960183                       # Average percentage of cache occupancy
system.cpu0.icache.tags.occ_percent::total     0.999366                       # Average percentage of cache occupancy
system.cpu0.icache.tags.occ_task_id_blocks::1024          512                       # Occupied blocks per task id
system.cpu0.icache.tags.age_task_id_blocks_1024::2          467                       # Occupied blocks per task id
system.cpu0.icache.tags.age_task_id_blocks_1024::3           45                       # Occupied blocks per task id
system.cpu0.icache.tags.occ_task_id_percent::1024            1                       # Percentage of cache occupancy per task id
system.cpu0.icache.tags.tag_accesses            86163                       # Number of tag accesses
system.cpu0.icache.tags.data_accesses           86163                       # Number of data accesses
system.cpu0.icache.ReadReq_hits::switch_cpus0.inst        37013                       # number of ReadReq hits
system.cpu0.icache.ReadReq_hits::total          37013                       # number of ReadReq hits
system.cpu0.icache.demand_hits::switch_cpus0.inst        37013                       # number of demand (read+write) hits
system.cpu0.icache.demand_hits::total           37013                       # number of demand (read+write) hits
system.cpu0.icache.overall_hits::switch_cpus0.inst        37013                       # number of overall hits
system.cpu0.icache.overall_hits::total          37013                       # number of overall hits
system.cpu0.icache.ReadReq_misses::switch_cpus0.inst         4309                       # number of ReadReq misses
system.cpu0.icache.ReadReq_misses::total         4309                       # number of ReadReq misses
system.cpu0.icache.demand_misses::switch_cpus0.inst         4309                       # number of demand (read+write) misses
system.cpu0.icache.demand_misses::total          4309                       # number of demand (read+write) misses
system.cpu0.icache.overall_misses::switch_cpus0.inst         4309                       # number of overall misses
system.cpu0.icache.overall_misses::total         4309                       # number of overall misses
system.cpu0.icache.ReadReq_miss_latency::switch_cpus0.inst    315451351                       # number of ReadReq miss cycles
system.cpu0.icache.ReadReq_miss_latency::total    315451351                       # number of ReadReq miss cycles
system.cpu0.icache.demand_miss_latency::switch_cpus0.inst    315451351                       # number of demand (read+write) miss cycles
system.cpu0.icache.demand_miss_latency::total    315451351                       # number of demand (read+write) miss cycles
system.cpu0.icache.overall_miss_latency::switch_cpus0.inst    315451351                       # number of overall miss cycles
system.cpu0.icache.overall_miss_latency::total    315451351                       # number of overall miss cycles
system.cpu0.icache.ReadReq_accesses::switch_cpus0.inst        41322                       # number of ReadReq accesses(hits+misses)
system.cpu0.icache.ReadReq_accesses::total        41322                       # number of ReadReq accesses(hits+misses)
[...]
system.switch_cpus3.ipc_total                0.322343                       # IPC: Total IPC of All Threads
system.switch_cpus3.int_regfile_reads          223501                       # number of integer regfile reads
system.switch_cpus3.int_regfile_writes         117997                       # number of integer regfile writes
system.switch_cpus3.fp_regfile_reads              154                       # number of floating regfile reads
system.switch_cpus3.fp_regfile_writes             155                       # number of floating regfile writes
system.switch_cpus3.misc_regfile_reads          16648                       # number of misc regfile reads
system.switch_cpus3.misc_regfile_writes          4584                       # number of misc regfile writes
system.tol2bus.trans_dist::ReadReq              34575                       # Transaction distribution
system.tol2bus.trans_dist::ReadResp             34575                       # Transaction distribution
system.tol2bus.trans_dist::WriteReq               125                       # Transaction distribution
system.tol2bus.trans_dist::WriteResp              125                       # Transaction distribution
system.tol2bus.trans_dist::Writeback            16531                       # Transaction distribution
system.tol2bus.trans_dist::UpgradeReq             436                       # Transaction distribution
system.tol2bus.trans_dist::SCUpgradeReq           109                       # Transaction distribution
system.tol2bus.trans_dist::UpgradeResp            545                       # Transaction distribution
system.tol2bus.trans_dist::ReadExReq            10176                       # Transaction distribution
system.tol2bus.trans_dist::ReadExResp           10176                       # Transaction distribution
system.tol2bus.trans_dist::BadAddressError            1                       # Transaction distribution
system.tol2bus.pkt_count_system.cpu0.icache.mem_side::system.l2.cpu_side        12243                       # Packet count per connected master and slave (bytes)
system.tol2bus.pkt_count_system.cpu0.dcache.mem_side::system.l2.cpu_side        33564                       # Packet count per connected master and slave (bytes)
system.tol2bus.pkt_count_system.cpu1.icache.mem_side::system.l2.cpu_side           88                       # Packet count per connected master and slave (bytes)
system.tol2bus.pkt_count_system.cpu1.dcache.mem_side::system.l2.cpu_side           45                       # Packet count per connected master and slave (bytes)
system.tol2bus.pkt_count_system.cpu2.icache.mem_side::system.l2.cpu_side        14994                       # Packet count per connected master and slave (bytes)
system.tol2bus.pkt_count_system.cpu2.dcache.mem_side::system.l2.cpu_side        34176                       # Packet count per connected master and slave (bytes)
system.tol2bus.pkt_count_system.cpu3.icache.mem_side::system.l2.cpu_side         4371                       # Packet count per connected master and slave (bytes)
system.tol2bus.pkt_count_system.cpu3.dcache.mem_side::system.l2.cpu_side         7321                       # Packet count per connected master and slave (bytes)
system.tol2bus.pkt_count::total                106802                       # Packet count per connected master and slave (bytes)
system.tol2bus.pkt_size_system.cpu0.icache.mem_side::system.l2.cpu_side       391488                       # Cumulative packet size per connected master and slave (bytes)
system.tol2bus.pkt_size_system.cpu0.dcache.mem_side::system.l2.cpu_side      1287327                       # Cumulative packet size per connected master and slave (bytes)
system.tol2bus.pkt_size_system.cpu1.icache.mem_side::system.l2.cpu_side         2816                       # Cumulative packet size per connected master and slave (bytes)
system.tol2bus.pkt_size_system.cpu1.dcache.mem_side::system.l2.cpu_side          728                       # Cumulative packet size per connected master and slave (bytes)
system.tol2bus.pkt_size_system.cpu2.icache.mem_side::system.l2.cpu_side       479616                       # Cumulative packet size per connected master and slave (bytes)
system.tol2bus.pkt_size_system.cpu2.dcache.mem_side::system.l2.cpu_side      1320483                       # Cumulative packet size per connected master and slave (bytes)
system.tol2bus.pkt_size_system.cpu3.icache.mem_side::system.l2.cpu_side       139840                       # Cumulative packet size per connected master and slave (bytes)
system.tol2bus.pkt_size_system.cpu3.dcache.mem_side::system.l2.cpu_side       256360                       # Cumulative packet size per connected master and slave (bytes)
system.tol2bus.pkt_size::total                3878658                       # Cumulative packet size per connected master and slave (bytes)
system.tol2bus.snoops                             572                       # Total snoops (count)
system.tol2bus.snoop_fanout::samples            61952                       # Request fanout histogram
system.tol2bus.snoop_fanout::mean                   7                       # Request fanout histogram
system.tol2bus.snoop_fanout::stdev                  0                       # Request fanout histogram
system.tol2bus.snoop_fanout::underflows             0      0.00%      0.00% # Request fanout histogram
system.tol2bus.snoop_fanout::0                      0      0.00%      0.00% # Request fanout histogram
system.tol2bus.snoop_fanout::1                      0      0.00%      0.00% # Request fanout histogram
system.tol2bus.snoop_fanout::2                      0      0.00%      0.00% # Request fanout histogram
system.tol2bus.snoop_fanout::3                      0      0.00%      0.00% # Request fanout histogram
system.tol2bus.snoop_fanout::4                      0      0.00%      0.00% # Request fanout histogram
system.tol2bus.snoop_fanout::5                      0      0.00%      0.00% # Request fanout histogram
system.tol2bus.snoop_fanout::6                      0      0.00%      0.00% # Request fanout histogram
system.tol2bus.snoop_fanout::7                  61952    100.00%    100.00% # Request fanout histogram
system.tol2bus.snoop_fanout::8                      0      0.00%    100.00% # Request fanout histogram
system.tol2bus.snoop_fanout::overflows              0      0.00%    100.00% # Request fanout histogram
system.tol2bus.snoop_fanout::min_value              7                       # Request fanout histogram
system.tol2bus.snoop_fanout::max_value              7                       # Request fanout histogram
system.tol2bus.snoop_fanout::total              61952                       # Request fanout histogram
system.tol2bus.reqLayer0.occupancy           47569500                       # Layer occupancy (ticks)
system.tol2bus.reqLayer0.utilization              2.3                       # Layer utilization (%)
system.tol2bus.respLayer0.occupancy           9940980                       # Layer occupancy (ticks)
system.tol2bus.respLayer0.utilization             0.5                       # Layer utilization (%)
system.tol2bus.respLayer1.occupancy          20740266                       # Layer occupancy (ticks)
system.tol2bus.respLayer1.utilization             1.0                       # Layer utilization (%)
system.tol2bus.respLayer2.occupancy             72740                       # Layer occupancy (ticks)
system.tol2bus.respLayer2.utilization             0.0                       # Layer utilization (%)
system.tol2bus.respLayer3.occupancy             24505                       # Layer occupancy (ticks)
system.tol2bus.respLayer3.utilization             0.0                       # Layer utilization (%)
system.tol2bus.respLayer4.occupancy          12373710                       # Layer occupancy (ticks)
system.tol2bus.respLayer4.utilization             0.6                       # Layer utilization (%)
system.tol2bus.respLayer5.occupancy          21978808                       # Layer occupancy (ticks)
system.tol2bus.respLayer5.utilization             1.1                       # Layer utilization (%)
system.tol2bus.respLayer6.occupancy           3500457                       # Layer occupancy (ticks)
system.tol2bus.respLayer6.utilization             0.2                       # Layer utilization (%)
system.tol2bus.respLayer7.occupancy           4699971                       # Layer occupancy (ticks)
system.tol2bus.respLayer7.utilization             0.2                       # Layer utilization (%)
system.tsunami.ethernet.descDMAReads                0                       # Number of descriptors the device read w/ DMA
system.tsunami.ethernet.descDMAWrites               0                       # Number of descriptors the device wrote w/ DMA
system.tsunami.ethernet.descDmaReadBytes            0                       # number of descriptor bytes read w/ DMA
system.tsunami.ethernet.descDmaWriteBytes            0                       # number of descriptor bytes write w/ DMA
system.tsunami.ethernet.postedSwi                   0                       # number of software interrupts posted to CPU
system.tsunami.ethernet.coalescedSwi              nan                       # average number of Swi's coalesced into each post
system.tsunami.ethernet.totalSwi                    0                       # total number of Swi written to ISR
system.tsunami.ethernet.postedRxIdle                0                       # number of rxIdle interrupts posted to CPU
system.tsunami.ethernet.coalescedRxIdle           nan                       # average number of RxIdle's coalesced into each post
system.tsunami.ethernet.totalRxIdle                 0                       # total number of RxIdle written to ISR
system.tsunami.ethernet.postedRxOk                  0                       # number of RxOk interrupts posted to CPU
system.tsunami.ethernet.coalescedRxOk             nan                       # average number of RxOk's coalesced into each post
system.tsunami.ethernet.totalRxOk                   0                       # total number of RxOk written to ISR
system.tsunami.ethernet.postedRxDesc                0                       # number of RxDesc interrupts posted to CPU
system.tsunami.ethernet.coalescedRxDesc           nan                       # average number of RxDesc's coalesced into each post
system.tsunami.ethernet.totalRxDesc                 0                       # total number of RxDesc written to ISR
system.tsunami.ethernet.postedTxOk                  0                       # number of TxOk interrupts posted to CPU
system.tsunami.ethernet.coalescedTxOk             nan                       # average number of TxOk's coalesced into each post
system.tsunami.ethernet.totalTxOk                   0                       # total number of TxOk written to ISR
system.tsunami.ethernet.postedTxIdle                0                       # number of TxIdle interrupts posted to CPU
system.tsunami.ethernet.coalescedTxIdle           nan                       # average number of TxIdle's coalesced into each post
system.tsunami.ethernet.totalTxIdle                 0                       # total number of TxIdle written to ISR
system.tsunami.ethernet.postedTxDesc                0                       # number of TxDesc interrupts posted to CPU
system.tsunami.ethernet.coalescedTxDesc           nan                       # average number of TxDesc's coalesced into each post
system.tsunami.ethernet.totalTxDesc                 0                       # total number of TxDesc written to ISR
system.tsunami.ethernet.postedRxOrn                 0                       # number of RxOrn posted to CPU
system.tsunami.ethernet.coalescedRxOrn            nan                       # average number of RxOrn's coalesced into each post
system.tsunami.ethernet.totalRxOrn                  0                       # total number of RxOrn written to ISR
system.tsunami.ethernet.coalescedTotal            nan                       # average number of interrupts coalesced into each post
system.tsunami.ethernet.postedInterrupts            0                       # number of posts to CPU
system.tsunami.ethernet.droppedPackets              0                       # number of packets dropped
system.switch_cpus0.kern.inst.arm                   0                       # number of arm instructions executed
system.switch_cpus0.kern.inst.quiesce               0                       # number of quiesce instructions executed
system.switch_cpus0.kern.inst.hwrei                 0                       # number of hwrei instructions executed
system.switch_cpus0.kern.mode_switch::kernel            0                       # number of protection mode switches
system.switch_cpus0.kern.mode_switch::user            0                       # number of protection mode switches
system.switch_cpus0.kern.mode_switch::idle            0                       # number of protection mode switches
system.switch_cpus0.kern.mode_good::kernel            0                      
system.switch_cpus0.kern.mode_good::user            0                      
system.switch_cpus0.kern.mode_good::idle            0                      
system.switch_cpus0.kern.mode_switch_good::kernel          nan                       # fraction of useful protection mode switches
system.switch_cpus0.kern.mode_switch_good::user          nan                       # fraction of useful protection mode switches
system.switch_cpus0.kern.mode_switch_good::idle          nan                       # fraction of useful protection mode switches
system.switch_cpus0.kern.mode_switch_good::total          nan                       # fraction of useful protection mode switches
system.switch_cpus0.kern.mode_ticks::kernel            0                       # number of ticks spent at the given mode
system.switch_cpus0.kern.mode_ticks::user            0                       # number of ticks spent at the given mode
system.switch_cpus0.kern.mode_ticks::idle            0                       # number of ticks spent at the given mode
system.switch_cpus0.kern.swap_context               0                       # number of times the context was actually changed
system.switch_cpus1.kern.inst.arm                   0                       # number of arm instructions executed
system.switch_cpus1.kern.inst.quiesce               0                       # number of quiesce instructions executed
system.switch_cpus1.kern.inst.hwrei                 0                       # number of hwrei instructions executed
system.switch_cpus1.kern.mode_switch::kernel            0                       # number of protection mode switches
system.switch_cpus1.kern.mode_switch::user            0                       # number of protection mode switches
system.switch_cpus1.kern.mode_switch::idle            0                       # number of protection mode switches
system.switch_cpus1.kern.mode_good::kernel            0                      
system.switch_cpus1.kern.mode_good::user            0                      
system.switch_cpus1.kern.mode_good::idle            0                      
system.switch_cpus1.kern.mode_switch_good::kernel          nan                       # fraction of useful protection mode switches
system.switch_cpus1.kern.mode_switch_good::user          nan                       # fraction of useful protection mode switches
system.switch_cpus1.kern.mode_switch_good::idle          nan                       # fraction of useful protection mode switches
system.switch_cpus1.kern.mode_switch_good::total          nan                       # fraction of useful protection mode switches
system.switch_cpus1.kern.mode_ticks::kernel            0                       # number of ticks spent at the given mode
system.switch_cpus1.kern.mode_ticks::user            0                       # number of ticks spent at the given mode
system.switch_cpus1.kern.mode_ticks::idle            0                       # number of ticks spent at the given mode
system.switch_cpus1.kern.swap_context               0                       # number of times the context was actually changed
system.switch_cpus2.kern.inst.arm                   0                       # number of arm instructions executed
system.switch_cpus2.kern.inst.quiesce               0                       # number of quiesce instructions executed
system.switch_cpus2.kern.inst.hwrei                 0                       # number of hwrei instructions executed
system.switch_cpus2.kern.mode_switch::kernel            0                       # number of protection mode switches
system.switch_cpus2.kern.mode_switch::user            0                       # number of protection mode switches
system.switch_cpus2.kern.mode_switch::idle            0                       # number of protection mode switches
system.switch_cpus2.kern.mode_good::kernel            0                      
system.switch_cpus2.kern.mode_good::user            0                      
system.switch_cpus2.kern.mode_good::idle            0                      
system.switch_cpus2.kern.mode_switch_good::kernel          nan                       # fraction of useful protection mode switches
system.switch_cpus2.kern.mode_switch_good::user          nan                       # fraction of useful protection mode switches
system.switch_cpus2.kern.mode_switch_good::idle          nan                       # fraction of useful protection mode switches
system.switch_cpus2.kern.mode_switch_good::total          nan                       # fraction of useful protection mode switches
system.switch_cpus2.kern.mode_ticks::kernel            0                       # number of ticks spent at the given mode
system.switch_cpus2.kern.mode_ticks::user            0                       # number of ticks spent at the given mode
system.switch_cpus2.kern.mode_ticks::idle            0                       # number of ticks spent at the given mode
system.switch_cpus2.kern.swap_context               0                       # number of times the context was actually changed
system.switch_cpus3.kern.inst.arm                   0                       # number of arm instructions executed
system.switch_cpus3.kern.inst.quiesce               0                       # number of quiesce instructions executed
system.switch_cpus3.kern.inst.hwrei                 0                       # number of hwrei instructions executed
system.switch_cpus3.kern.mode_switch::kernel            0                       # number of protection mode switches
system.switch_cpus3.kern.mode_switch::user            0                       # number of protection mode switches
system.switch_cpus3.kern.mode_switch::idle            0                       # number of protection mode switches
system.switch_cpus3.kern.mode_good::kernel            0                      
system.switch_cpus3.kern.mode_good::user            0                      
system.switch_cpus3.kern.mode_good::idle            0                      
system.switch_cpus3.kern.mode_switch_good::kernel          nan                       # fraction of useful protection mode switches
system.switch_cpus3.kern.mode_switch_good::user          nan                       # fraction of useful protection mode switches
system.switch_cpus3.kern.mode_switch_good::idle          nan                       # fraction of useful protection mode switches
system.switch_cpus3.kern.mode_switch_good::total          nan                       # fraction of useful protection mode switches
system.switch_cpus3.kern.mode_ticks::kernel            0                       # number of ticks spent at the given mode
system.switch_cpus3.kern.mode_ticks::user            0                       # number of ticks spent at the given mode
system.switch_cpus3.kern.mode_ticks::idle            0                       # number of ticks spent at the given mode
system.switch_cpus3.kern.swap_context               0                       # number of times the context was actually changed

---------- End Simulation Statistics   ----------
