
---------- Begin Simulation Statistics ----------
sim_seconds                                  0.000742                       # Number of seconds simulated
sim_ticks                                   741851000                       # Number of ticks simulated
final_tick                               2261993604500                       # Number of ticks from beginning of simulation (restored from checkpoints and never reset)
sim_freq                                 1000000000000                       # Frequency of simulated ticks
host_inst_rate                               40089888                       # Simulator instruction rate (inst/s)
host_op_rate                                 40089791                       # Simulator op (including micro ops) rate (op/s)
host_tick_rate                              252290691                       # Simulator tick rate (ticks/s)
host_mem_usage                                 757616                       # Number of bytes of host memory used
host_seconds                                     2.94                       # Real time elapsed on the host
sim_insts                                   117882221                       # Number of instructions simulated
sim_ops                                     117882221                       # Number of ops (including micro ops) simulated
system.voltage_domain.voltage                       1                       # Voltage in Volts
system.clk_domain.clock                          1000                       # Clock period in ticks
system.mem_ctrls.bytes_read::switch_cpus0.inst        72512                       # Number of bytes read from this memory
system.mem_ctrls.bytes_read::switch_cpus0.data        61760                       # Number of bytes read from this memory
system.mem_ctrls.bytes_read::switch_cpus1.inst        15168                       # Number of bytes read from this memory
system.mem_ctrls.bytes_read::switch_cpus1.data        49728                       # Number of bytes read from this memory
system.mem_ctrls.bytes_read::switch_cpus2.inst         3008                       # Number of bytes read from this memory
system.mem_ctrls.bytes_read::switch_cpus2.data         1536                       # Number of bytes read from this memory
system.mem_ctrls.bytes_read::switch_cpus3.inst        53376                       # Number of bytes read from this memory
system.mem_ctrls.bytes_read::switch_cpus3.data       450432                       # Number of bytes read from this memory
system.mem_ctrls.bytes_read::total             707520                       # Number of bytes read from this memory
system.mem_ctrls.bytes_inst_read::switch_cpus0.inst        72512                       # Number of instructions bytes read from this memory
system.mem_ctrls.bytes_inst_read::switch_cpus1.inst        15168                       # Number of instructions bytes read from this memory
system.mem_ctrls.bytes_inst_read::switch_cpus2.inst         3008                       # Number of instructions bytes read from this memory
system.mem_ctrls.bytes_inst_read::switch_cpus3.inst        53376                       # Number of instructions bytes read from this memory
system.mem_ctrls.bytes_inst_read::total        144064                       # Number of instructions bytes read from this memory
system.mem_ctrls.bytes_written::writebacks       407296                       # Number of bytes written to this memory
system.mem_ctrls.bytes_written::total          407296                       # Number of bytes written to this memory
system.mem_ctrls.num_reads::switch_cpus0.inst         1133                       # Number of read requests responded to by this memory
system.mem_ctrls.num_reads::switch_cpus0.data          965                       # Number of read requests responded to by this memory
system.mem_ctrls.num_reads::switch_cpus1.inst          237                       # Number of read requests responded to by this memory
system.mem_ctrls.num_reads::switch_cpus1.data          777                       # Number of read requests responded to by this memory
system.mem_ctrls.num_reads::switch_cpus2.inst           47                       # Number of read requests responded to by this memory
system.mem_ctrls.num_reads::switch_cpus2.data           24                       # Number of read requests responded to by this memory
system.mem_ctrls.num_reads::switch_cpus3.inst          834                       # Number of read requests responded to by this memory
system.mem_ctrls.num_reads::switch_cpus3.data         7038                       # Number of read requests responded to by this memory
system.mem_ctrls.num_reads::total               11055                       # Number of read requests responded to by this memory
system.mem_ctrls.num_writes::writebacks          6364                       # Number of write requests responded to by this memory
system.mem_ctrls.num_writes::total               6364                       # Number of write requests responded to by this memory
system.mem_ctrls.bw_read::switch_cpus0.inst     97744695                       # Total read bandwidth from this memory (bytes/s)
system.mem_ctrls.bw_read::switch_cpus0.data     83251219                       # Total read bandwidth from this memory (bytes/s)
system.mem_ctrls.bw_read::switch_cpus1.inst     20446154                       # Total read bandwidth from this memory (bytes/s)
system.mem_ctrls.bw_read::switch_cpus1.data     67032329                       # Total read bandwidth from this memory (bytes/s)
system.mem_ctrls.bw_read::switch_cpus2.inst      4054723                       # Total read bandwidth from this memory (bytes/s)
system.mem_ctrls.bw_read::switch_cpus2.data      2070497                       # Total read bandwidth from this memory (bytes/s)
system.mem_ctrls.bw_read::switch_cpus3.inst     71949758                       # Total read bandwidth from this memory (bytes/s)
system.mem_ctrls.bw_read::switch_cpus3.data    607173139                       # Total read bandwidth from this memory (bytes/s)
system.mem_ctrls.bw_read::total             953722513                       # Total read bandwidth from this memory (bytes/s)
system.mem_ctrls.bw_inst_read::switch_cpus0.inst     97744695                       # Instruction read bandwidth from this memory (bytes/s)
system.mem_ctrls.bw_inst_read::switch_cpus1.inst     20446154                       # Instruction read bandwidth from this memory (bytes/s)
system.mem_ctrls.bw_inst_read::switch_cpus2.inst      4054723                       # Instruction read bandwidth from this memory (bytes/s)
system.mem_ctrls.bw_inst_read::switch_cpus3.inst     71949758                       # Instruction read bandwidth from this memory (bytes/s)
system.mem_ctrls.bw_inst_read::total        194195330                       # Instruction read bandwidth from this memory (bytes/s)
system.mem_ctrls.bw_write::writebacks       549026691                       # Write bandwidth from this memory (bytes/s)
system.mem_ctrls.bw_write::total            549026691                       # Write bandwidth from this memory (bytes/s)
system.mem_ctrls.bw_total::writebacks       549026691                       # Total bandwidth to/from this memory (bytes/s)
system.mem_ctrls.bw_total::switch_cpus0.inst     97744695                       # Total bandwidth to/from this memory (bytes/s)
system.mem_ctrls.bw_total::switch_cpus0.data     83251219                       # Total bandwidth to/from this memory (bytes/s)
system.mem_ctrls.bw_total::switch_cpus1.inst     20446154                       # Total bandwidth to/from this memory (bytes/s)
system.mem_ctrls.bw_total::switch_cpus1.data     67032329                       # Total bandwidth to/from this memory (bytes/s)
system.mem_ctrls.bw_total::switch_cpus2.inst      4054723                       # Total bandwidth to/from this memory (bytes/s)
system.mem_ctrls.bw_total::switch_cpus2.data      2070497                       # Total bandwidth to/from this memory (bytes/s)
system.mem_ctrls.bw_total::switch_cpus3.inst     71949758                       # Total bandwidth to/from this memory (bytes/s)
system.mem_ctrls.bw_total::switch_cpus3.data    607173139                       # Total bandwidth to/from this memory (bytes/s)
system.mem_ctrls.bw_total::total           1502749204                       # Total bandwidth to/from this memory (bytes/s)
system.mem_ctrls.readReqs                       11055                       # Number of read requests accepted
system.mem_ctrls.writeReqs                       6364                       # Number of write requests accepted
system.mem_ctrls.readBursts                     11055                       # Number of DRAM read bursts, including those serviced by the write queue
system.mem_ctrls.writeBursts                     6364                       # Number of DRAM write bursts, including those merged in the write queue
system.mem_ctrls.bytesReadDRAM                 706560                       # Total number of bytes read from DRAM
system.mem_ctrls.bytesReadWrQ                     960                       # Total number of bytes read from write queue
system.mem_ctrls.bytesWritten                  405440                       # Total number of bytes written to DRAM
system.mem_ctrls.bytesReadSys                  707520                       # Total read bytes from the system interface side
system.mem_ctrls.bytesWrittenSys               407296                       # Total written bytes from the system interface side
system.mem_ctrls.servicedByWrQ                     15                       # Number of DRAM read bursts serviced by the write queue
system.mem_ctrls.mergedWrBursts                     0                       # Number of DRAM write bursts merged with an existing one
system.mem_ctrls.neitherReadNorWriteReqs           79                       # Number of requests that are neither read nor write
system.mem_ctrls.perBankRdBursts::0               485                       # Per bank write bursts
system.mem_ctrls.perBankRdBursts::1               782                       # Per bank write bursts
system.mem_ctrls.perBankRdBursts::2               498                       # Per bank write bursts
system.mem_ctrls.perBankRdBursts::3               398                       # Per bank write bursts
system.mem_ctrls.perBankRdBursts::4               390                       # Per bank write bursts
system.mem_ctrls.perBankRdBursts::5               811                       # Per bank write bursts
system.mem_ctrls.perBankRdBursts::6               737                       # Per bank write bursts
system.mem_ctrls.perBankRdBursts::7               745                       # Per bank write bursts
system.mem_ctrls.perBankRdBursts::8               488                       # Per bank write bursts
system.mem_ctrls.perBankRdBursts::9              1105                       # Per bank write bursts
system.mem_ctrls.perBankRdBursts::10              375                       # Per bank write bursts
system.mem_ctrls.perBankRdBursts::11              721                       # Per bank write bursts
system.mem_ctrls.perBankRdBursts::12              939                       # Per bank write bursts
system.mem_ctrls.perBankRdBursts::13              874                       # Per bank write bursts
system.mem_ctrls.perBankRdBursts::14              946                       # Per bank write bursts
system.mem_ctrls.perBankRdBursts::15              746                       # Per bank write bursts
system.mem_ctrls.perBankWrBursts::0               329                       # Per bank write bursts
system.mem_ctrls.perBankWrBursts::1               532                       # Per bank write bursts
system.mem_ctrls.perBankWrBursts::2                35                       # Per bank write bursts
system.mem_ctrls.perBankWrBursts::3               463                       # Per bank write bursts
system.mem_ctrls.perBankWrBursts::4               296                       # Per bank write bursts
system.mem_ctrls.perBankWrBursts::5               403                       # Per bank write bursts
system.mem_ctrls.perBankWrBursts::6               495                       # Per bank write bursts
system.mem_ctrls.perBankWrBursts::7               649                       # Per bank write bursts
system.mem_ctrls.perBankWrBursts::8               255                       # Per bank write bursts
system.mem_ctrls.perBankWrBursts::9               456                       # Per bank write bursts
system.mem_ctrls.perBankWrBursts::10              407                       # Per bank write bursts
system.mem_ctrls.perBankWrBursts::11              210                       # Per bank write bursts
system.mem_ctrls.perBankWrBursts::12              405                       # Per bank write bursts
system.mem_ctrls.perBankWrBursts::13              496                       # Per bank write bursts
system.mem_ctrls.perBankWrBursts::14              565                       # Per bank write bursts
system.mem_ctrls.perBankWrBursts::15              339                       # Per bank write bursts
system.mem_ctrls.numRdRetry                         0                       # Number of times read queue was full causing retry
system.mem_ctrls.numWrRetry                         0                       # Number of times write queue was full causing retry
system.mem_ctrls.totGap                     739559000                       # Total gap between requests
system.mem_ctrls.readPktSize::0                     0                       # Read request sizes (log2)
system.mem_ctrls.readPktSize::1                     0                       # Read request sizes (log2)
system.mem_ctrls.readPktSize::2                     0                       # Read request sizes (log2)
system.mem_ctrls.readPktSize::3                     0                       # Read request sizes (log2)
system.mem_ctrls.readPktSize::4                     0                       # Read request sizes (log2)
system.mem_ctrls.readPktSize::5                     0                       # Read request sizes (log2)
system.mem_ctrls.readPktSize::6                 11055                       # Read request sizes (log2)
system.mem_ctrls.writePktSize::0                    0                       # Write request sizes (log2)
system.mem_ctrls.writePktSize::1                    0                       # Write request sizes (log2)
system.mem_ctrls.writePktSize::2                    0                       # Write request sizes (log2)
system.mem_ctrls.writePktSize::3                    0                       # Write request sizes (log2)
system.mem_ctrls.writePktSize::4                    0                       # Write request sizes (log2)
system.mem_ctrls.writePktSize::5                    0                       # Write request sizes (log2)
system.mem_ctrls.writePktSize::6                 6364                       # Write request sizes (log2)
system.mem_ctrls.rdQLenPdf::0                    4950                       # What read queue length does an incoming req see
system.mem_ctrls.rdQLenPdf::1                    2902                       # What read queue length does an incoming req see
system.mem_ctrls.rdQLenPdf::2                    1842                       # What read queue length does an incoming req see
system.mem_ctrls.rdQLenPdf::3                    1317                       # What read queue length does an incoming req see
system.mem_ctrls.rdQLenPdf::4                      17                       # What read queue length does an incoming req see
system.mem_ctrls.rdQLenPdf::5                       5                       # What read queue length does an incoming req see
system.mem_ctrls.rdQLenPdf::6                       3                       # What read queue length does an incoming req see
system.mem_ctrls.rdQLenPdf::7                       2                       # What read queue length does an incoming req see
system.mem_ctrls.rdQLenPdf::8                       2                       # What read queue length does an incoming req see
system.mem_ctrls.rdQLenPdf::9                       0                       # What read queue length does an incoming req see
system.mem_ctrls.rdQLenPdf::10                      0                       # What read queue length does an incoming req see
system.mem_ctrls.rdQLenPdf::11                      0                       # What read queue length does an incoming req see
system.mem_ctrls.rdQLenPdf::12                      0                       # What read queue length does an incoming req see
system.mem_ctrls.rdQLenPdf::13                      0                       # What read queue length does an incoming req see
system.mem_ctrls.rdQLenPdf::14                      0                       # What read queue length does an incoming req see
system.mem_ctrls.rdQLenPdf::15                      0                       # What read queue length does an incoming req see
system.mem_ctrls.rdQLenPdf::16                      0                       # What read queue length does an incoming req see
system.mem_ctrls.rdQLenPdf::17                      0                       # What read queue length does an incoming req see
system.mem_ctrls.rdQLenPdf::18                      0                       # What read queue length does an incoming req see
system.mem_ctrls.rdQLenPdf::19                      0                       # What read queue length does an incoming req see
system.mem_ctrls.rdQLenPdf::20                      0                       # What read queue length does an incoming req see
system.mem_ctrls.rdQLenPdf::21                      0                       # What read queue length does an incoming req see
system.mem_ctrls.rdQLenPdf::22                      0                       # What read queue length does an incoming req see
system.mem_ctrls.rdQLenPdf::23                      0                       # What read queue length does an incoming req see
system.mem_ctrls.rdQLenPdf::24                      0                       # What read queue length does an incoming req see
system.mem_ctrls.rdQLenPdf::25                      0                       # What read queue length does an incoming req see
system.mem_ctrls.rdQLenPdf::26                      0                       # What read queue length does an incoming req see
system.mem_ctrls.rdQLenPdf::27                      0                       # What read queue length does an incoming req see
system.mem_ctrls.rdQLenPdf::28                      0                       # What read queue length does an incoming req see
system.mem_ctrls.rdQLenPdf::29                      0                       # What read queue length does an incoming req see
system.mem_ctrls.rdQLenPdf::30                      0                       # What read queue length does an incoming req see
system.mem_ctrls.rdQLenPdf::31                      0                       # What read queue length does an incoming req see
system.mem_ctrls.wrQLenPdf::0                       1                       # What write queue length does an incoming req see
system.mem_ctrls.wrQLenPdf::1                       1                       # What write queue length does an incoming req see
system.mem_ctrls.wrQLenPdf::2                       1                       # What write queue length does an incoming req see
system.mem_ctrls.wrQLenPdf::3                       1                       # What write queue length does an incoming req see
system.mem_ctrls.wrQLenPdf::4                       1                       # What write queue length does an incoming req see
system.mem_ctrls.wrQLenPdf::5                       1                       # What write queue length does an incoming req see
system.mem_ctrls.wrQLenPdf::6                       1                       # What write queue length does an incoming req see
system.mem_ctrls.wrQLenPdf::7                       1                       # What write queue length does an incoming req see
system.mem_ctrls.wrQLenPdf::8                       1                       # What write queue length does an incoming req see
system.mem_ctrls.wrQLenPdf::9                       1                       # What write queue length does an incoming req see
system.mem_ctrls.wrQLenPdf::10                      1                       # What write queue length does an incoming req see
system.mem_ctrls.wrQLenPdf::11                      1                       # What write queue length does an incoming req see
system.mem_ctrls.wrQLenPdf::12                      1                       # What write queue length does an incoming req see
system.mem_ctrls.wrQLenPdf::13                      1                       # What write queue length does an incoming req see
system.mem_ctrls.wrQLenPdf::14                      1                       # What write queue length does an incoming req see
system.mem_ctrls.wrQLenPdf::15                     57                       # What write queue length does an incoming req see
system.mem_ctrls.wrQLenPdf::16                     62                       # What write queue length does an incoming req see
system.mem_ctrls.wrQLenPdf::17                    182                       # What write queue length does an incoming req see
system.mem_ctrls.wrQLenPdf::18                    292                       # What write queue length does an incoming req see
system.mem_ctrls.wrQLenPdf::19                    367                       # What write queue length does an incoming req see
system.mem_ctrls.wrQLenPdf::20                    391                       # What write queue length does an incoming req see
system.mem_ctrls.wrQLenPdf::21                    396                       # What write queue length does an incoming req see
system.mem_ctrls.wrQLenPdf::22                    392                       # What write queue length does an incoming req see
system.mem_ctrls.wrQLenPdf::23                    395                       # What write queue length does an incoming req see
system.mem_ctrls.wrQLenPdf::24                    396                       # What write queue length does an incoming req see
system.mem_ctrls.wrQLenPdf::25                    408                       # What write queue length does an incoming req see
system.mem_ctrls.wrQLenPdf::26                    465                       # What write queue length does an incoming req see
system.mem_ctrls.wrQLenPdf::27                    425                       # What write queue length does an incoming req see
system.mem_ctrls.wrQLenPdf::28                    426                       # What write queue length does an incoming req see
system.mem_ctrls.wrQLenPdf::29                    489                       # What write queue length does an incoming req see
system.mem_ctrls.wrQLenPdf::30                    422                       # What write queue length does an incoming req see
system.mem_ctrls.wrQLenPdf::31                    396                       # What write queue length does an incoming req see
system.mem_ctrls.wrQLenPdf::32                    387                       # What write queue length does an incoming req see
system.mem_ctrls.wrQLenPdf::33                      1                       # What write queue length does an incoming req see
system.mem_ctrls.wrQLenPdf::34                      0                       # What write queue length does an incoming req see
system.mem_ctrls.wrQLenPdf::35                      0                       # What write queue length does an incoming req see
system.mem_ctrls.wrQLenPdf::36                      0                       # What write queue length does an incoming req see
system.mem_ctrls.wrQLenPdf::37                      0                       # What write queue length does an incoming req see
system.mem_ctrls.wrQLenPdf::38                      0                       # What write queue length does an incoming req see
system.mem_ctrls.wrQLenPdf::39                      0                       # What write queue length does an incoming req see
system.mem_ctrls.wrQLenPdf::40                      0                       # What write queue length does an incoming req see
system.mem_ctrls.wrQLenPdf::41                      0                       # What write queue length does an incoming req see
system.mem_ctrls.wrQLenPdf::42                      0                       # What write queue length does an incoming req see
system.mem_ctrls.wrQLenPdf::43                      0                       # What write queue length does an incoming req see
system.mem_ctrls.wrQLenPdf::44                      0                       # What write queue length does an incoming req see
system.mem_ctrls.wrQLenPdf::45                      0                       # What write queue length does an incoming req see
system.mem_ctrls.wrQLenPdf::46                      0                       # What write queue length does an incoming req see
system.mem_ctrls.wrQLenPdf::47                      0                       # What write queue length does an incoming req see
system.mem_ctrls.wrQLenPdf::48                      0                       # What write queue length does an incoming req see
system.mem_ctrls.wrQLenPdf::49                      0                       # What write queue length does an incoming req see
system.mem_ctrls.wrQLenPdf::50                      0                       # What write queue length does an incoming req see
system.mem_ctrls.wrQLenPdf::51                      0                       # What write queue length does an incoming req see
system.mem_ctrls.wrQLenPdf::52                      0                       # What write queue length does an incoming req see
system.mem_ctrls.wrQLenPdf::53                      0                       # What write queue length does an incoming req see
system.mem_ctrls.wrQLenPdf::54                      0                       # What write queue length does an incoming req see
system.mem_ctrls.wrQLenPdf::55                      0                       # What write queue length does an incoming req see
system.mem_ctrls.wrQLenPdf::56                      0                       # What write queue length does an incoming req see
system.mem_ctrls.wrQLenPdf::57                      0                       # What write queue length does an incoming req see
system.mem_ctrls.wrQLenPdf::58                      0                       # What write queue length does an incoming req see
system.mem_ctrls.wrQLenPdf::59                      0                       # What write queue length does an incoming req see
system.mem_ctrls.wrQLenPdf::60                      0                       # What write queue length does an incoming req see
system.mem_ctrls.wrQLenPdf::61                      0                       # What write queue length does an incoming req see
system.mem_ctrls.wrQLenPdf::62                      0                       # What write queue length does an incoming req see
system.mem_ctrls.wrQLenPdf::63                      0                       # What write queue length does an incoming req see
system.mem_ctrls.bytesPerActivate::samples         4144                       # Bytes accessed per row activation
system.mem_ctrls.bytesPerActivate::mean    268.339768                       # Bytes accessed per row activation
system.mem_ctrls.bytesPerActivate::gmean   162.585692                       # Bytes accessed per row activation
system.mem_ctrls.bytesPerActivate::stdev   296.599911                       # Bytes accessed per row activation
system.mem_ctrls.bytesPerActivate::0-127         1680     40.54%     40.54% # Bytes accessed per row activation
system.mem_ctrls.bytesPerActivate::128-255         1023     24.69%     65.23% # Bytes accessed per row activation
system.mem_ctrls.bytesPerActivate::256-383          462     11.15%     76.38% # Bytes accessed per row activation
system.mem_ctrls.bytesPerActivate::384-511          237      5.72%     82.09% # Bytes accessed per row activation
system.mem_ctrls.bytesPerActivate::512-639          168      4.05%     86.15% # Bytes accessed per row activation
system.mem_ctrls.bytesPerActivate::640-767           83      2.00%     88.15% # Bytes accessed per row activation
system.mem_ctrls.bytesPerActivate::768-895           82      1.98%     90.13% # Bytes accessed per row activation
system.mem_ctrls.bytesPerActivate::896-1023           49      1.18%     91.31% # Bytes accessed per row activation
system.mem_ctrls.bytesPerActivate::1024-1151          360      8.69%    100.00% # Bytes accessed per row activation
system.mem_ctrls.bytesPerActivate::total         4144                       # Bytes accessed per row activation
system.mem_ctrls.rdPerTurnAround::samples          387                       # Reads before turning the bus around for writes
system.mem_ctrls.rdPerTurnAround::mean      28.490956                       # Reads before turning the bus around for writes
system.mem_ctrls.rdPerTurnAround::gmean     25.489370                       # Reads before turning the bus around for writes
system.mem_ctrls.rdPerTurnAround::stdev     15.694849                       # Reads before turning the bus around for writes
system.mem_ctrls.rdPerTurnAround::4-7               1      0.26%      0.26% # Reads before turning the bus around for writes
system.mem_ctrls.rdPerTurnAround::8-11              5      1.29%      1.55% # Reads before turning the bus around for writes
system.mem_ctrls.rdPerTurnAround::12-15            17      4.39%      5.94% # Reads before turning the bus around for writes
system.mem_ctrls.rdPerTurnAround::16-19            75     19.38%     25.32% # Reads before turning the bus around for writes
system.mem_ctrls.rdPerTurnAround::20-23            83     21.45%     46.77% # Reads before turning the bus around for writes
system.mem_ctrls.rdPerTurnAround::24-27            55     14.21%     60.98% # Reads before turning the bus around for writes
system.mem_ctrls.rdPerTurnAround::28-31            36      9.30%     70.28% # Reads before turning the bus around for writes
system.mem_ctrls.rdPerTurnAround::32-35            41     10.59%     80.88% # Reads before turning the bus around for writes
system.mem_ctrls.rdPerTurnAround::36-39            14      3.62%     84.50% # Reads before turning the bus around for writes
system.mem_ctrls.rdPerTurnAround::40-43             8      2.07%     86.56% # Reads before turning the bus around for writes
system.mem_ctrls.rdPerTurnAround::44-47             8      2.07%     88.63% # Reads before turning the bus around for writes
system.mem_ctrls.rdPerTurnAround::48-51            17      4.39%     93.02% # Reads before turning the bus around for writes
system.mem_ctrls.rdPerTurnAround::52-55             4      1.03%     94.06% # Reads before turning the bus around for writes
system.mem_ctrls.rdPerTurnAround::56-59             2      0.52%     94.57% # Reads before turning the bus around for writes
system.mem_ctrls.rdPerTurnAround::60-63             3      0.78%     95.35% # Reads before turning the bus around for writes
system.mem_ctrls.rdPerTurnAround::64-67             3      0.78%     96.12% # Reads before turning the bus around for writes
system.mem_ctrls.rdPerTurnAround::68-71             4      1.03%     97.16% # Reads before turning the bus around for writes
system.mem_ctrls.rdPerTurnAround::72-75             1      0.26%     97.42% # Reads before turning the bus around for writes
system.mem_ctrls.rdPerTurnAround::76-79             1      0.26%     97.67% # Reads before turning the bus around for writes
system.mem_ctrls.rdPerTurnAround::80-83             2      0.52%     98.19% # Reads before turning the bus around for writes
system.mem_ctrls.rdPerTurnAround::84-87             3      0.78%     98.97% # Reads before turning the bus around for writes
system.mem_ctrls.rdPerTurnAround::96-99             1      0.26%     99.22% # Reads before turning the bus around for writes
system.mem_ctrls.rdPerTurnAround::108-111            3      0.78%    100.00% # Reads before turning the bus around for writes
system.mem_ctrls.rdPerTurnAround::total           387                       # Reads before turning the bus around for writes
system.mem_ctrls.wrPerTurnAround::samples          387                       # Writes before turning the bus around for reads
system.mem_ctrls.wrPerTurnAround::mean      16.369509                       # Writes before turning the bus around for reads
system.mem_ctrls.wrPerTurnAround::gmean     16.347418                       # Writes before turning the bus around for reads
system.mem_ctrls.wrPerTurnAround::stdev      0.884759                       # Writes before turning the bus around for reads
system.mem_ctrls.wrPerTurnAround::16              324     83.72%     83.72% # Writes before turning the bus around for reads
system.mem_ctrls.wrPerTurnAround::17                4      1.03%     84.75% # Writes before turning the bus around for reads
system.mem_ctrls.wrPerTurnAround::18               43     11.11%     95.87% # Writes before turning the bus around for reads
system.mem_ctrls.wrPerTurnAround::19               11      2.84%     98.71% # Writes before turning the bus around for reads
system.mem_ctrls.wrPerTurnAround::20                5      1.29%    100.00% # Writes before turning the bus around for reads
system.mem_ctrls.wrPerTurnAround::total           387                       # Writes before turning the bus around for reads
system.mem_ctrls.totQLat                    228914250                       # Total ticks spent queuing
system.mem_ctrls.totMemAccLat               435914250                       # Total ticks spent from burst creation until serviced by the DRAM
system.mem_ctrls.totBusLat                   55200000                       # Total ticks spent in databus transfers
system.mem_ctrls.avgQLat                     20734.99                       # Average queueing delay per DRAM burst
system.mem_ctrls.avgBusLat                    5000.00                       # Average bus latency per DRAM burst
system.mem_ctrls.avgMemAccLat                39484.99                       # Average memory access latency per DRAM burst
system.mem_ctrls.avgRdBW                       952.43                       # Average DRAM read bandwidth in MiByte/s
system.mem_ctrls.avgWrBW                       546.52                       # Average achieved write bandwidth in MiByte/s
system.mem_ctrls.avgRdBWSys                    953.72                       # Average system read bandwidth in MiByte/s
system.mem_ctrls.avgWrBWSys                    549.03                       # Average system write bandwidth in MiByte/s
system.mem_ctrls.peakBW                      12800.00                       # Theoretical peak bandwidth in MiByte/s
system.mem_ctrls.busUtil                        11.71                       # Data bus utilization in percentage
system.mem_ctrls.busUtilRead                     7.44                       # Data bus utilization in percentage for reads
system.mem_ctrls.busUtilWrite                    4.27                       # Data bus utilization in percentage for writes
system.mem_ctrls.avgRdQLen                       1.85                       # Average read queue length when enqueuing
system.mem_ctrls.avgWrQLen                      25.47                       # Average write queue length when enqueuing
system.mem_ctrls.readRowHits                     8991                       # Number of row buffer hits during reads
system.mem_ctrls.writeRowHits                    4240                       # Number of row buffer hits during writes
system.mem_ctrls.readRowHitRate                 81.44                       # Row buffer hit rate for reads
system.mem_ctrls.writeRowHitRate                66.62                       # Row buffer hit rate for writes
system.mem_ctrls.avgGap                      42457.03                       # Average gap between requests
system.mem_ctrls.pageHitRate                    76.02                       # Row buffer hit rate, read and write combined
system.mem_ctrls_0.actEnergy                 15180480                       # Energy for activate commands per rank (pJ)
system.mem_ctrls_0.preEnergy                  8283000                       # Energy for precharge commands per rank (pJ)
system.mem_ctrls_0.readEnergy                37798800                       # Energy for read commands per rank (pJ)
system.mem_ctrls_0.writeEnergy               20748960                       # Energy for write commands per rank (pJ)
system.mem_ctrls_0.refreshEnergy             48313200                       # Energy for refresh commands per rank (pJ)
system.mem_ctrls_0.actBackEnergy            466778700                       # Energy for active background per rank (pJ)
system.mem_ctrls_0.preBackEnergy             34517250                       # Energy for precharge background per rank (pJ)
system.mem_ctrls_0.totalEnergy              631620390                       # Total energy per rank (pJ)
system.mem_ctrls_0.averagePower            853.594417                       # Core power per rank (mW)
system.mem_ctrls_0.memoryStateTime::IDLE     53794750                       # Time in different power states
system.mem_ctrls_0.memoryStateTime::REF      24700000                       # Time in different power states
system.mem_ctrls_0.memoryStateTime::PRE_PDN            0                       # Time in different power states
system.mem_ctrls_0.memoryStateTime::ACT     661472750                       # Time in different power states
system.mem_ctrls_0.memoryStateTime::ACT_PDN            0                       # Time in different power states
system.mem_ctrls_1.actEnergy                 16148160                       # Energy for activate commands per rank (pJ)
system.mem_ctrls_1.preEnergy                  8811000                       # Energy for precharge commands per rank (pJ)
system.mem_ctrls_1.readEnergy                48313200                       # Energy for read commands per rank (pJ)
system.mem_ctrls_1.writeEnergy               20301840                       # Energy for write commands per rank (pJ)
system.mem_ctrls_1.refreshEnergy             48313200                       # Energy for refresh commands per rank (pJ)
system.mem_ctrls_1.actBackEnergy            458867385                       # Energy for active background per rank (pJ)
system.mem_ctrls_1.preBackEnergy             41457000                       # Energy for precharge background per rank (pJ)
system.mem_ctrls_1.totalEnergy              642211785                       # Total energy per rank (pJ)
system.mem_ctrls_1.averagePower            867.908008                       # Core power per rank (mW)
system.mem_ctrls_1.memoryStateTime::IDLE     65225000                       # Time in different power states
system.mem_ctrls_1.memoryStateTime::REF      24700000                       # Time in different power states
system.mem_ctrls_1.memoryStateTime::PRE_PDN            0                       # Time in different power states
system.mem_ctrls_1.memoryStateTime::ACT     650042500                       # Time in different power states
system.mem_ctrls_1.memoryStateTime::ACT_PDN            0                       # Time in different power states
system.cpu_voltage_domain.voltage                   1                       # Voltage in Volts
system.cpu_clk_domain.clock                       500                       # Clock period in ticks
system.cpu0.dtb.fetch_hits                          0                       # ITB hits
system.cpu0.dtb.fetch_misses                        0                       # ITB misses
system.cpu0.dtb.fetch_acv                           0                       # ITB acv
system.cpu0.dtb.fetch_accesses                      0                       # ITB accesses
system.cpu0.dtb.read_hits                           0                       # DTB read hits
system.cpu0.dtb.read_misses                         0                       # DTB read misses
system.cpu0.dtb.read_acv                            0                       # DTB read access violations
system.cpu0.dtb.read_accesses                       0                       # DTB read accesses
system.cpu0.dtb.write_hits                          0                       # DTB write hits
system.cpu0.dtb.write_misses                        0                       # DTB write misses
system.cpu0.dtb.write_acv                           0                       # DTB write access violations
system.cpu0.dtb.write_accesses                      0                       # DTB write accesses
system.cpu0.dtb.data_hits                           0                       # DTB hits
system.cpu0.dtb.data_misses                         0                       # DTB misses
system.cpu0.dtb.data_acv                            0                       # DTB access violations
system.cpu0.dtb.data_accesses                       0                       # DTB accesses
system.cpu0.itb.fetch_hits                          0                       # ITB hits
system.cpu0.itb.fetch_misses                        0                       # ITB misses
system.cpu0.itb.fetch_acv                           0                       # ITB acv
system.cpu0.itb.fetch_accesses                      0                       # ITB accesses
system.cpu0.itb.read_hits                           0                       # DTB read hits
system.cpu0.itb.read_misses                         0                       # DTB read misses
system.cpu0.itb.read_acv                            0                       # DTB read access violations
system.cpu0.itb.read_accesses                       0                       # DTB read accesses
system.cpu0.itb.write_hits                          0                       # DTB write hits
system.cpu0.itb.write_misses                        0                       # DTB write misses
system.cpu0.itb.write_acv                           0                       # DTB write access violations
system.cpu0.itb.write_accesses                      0                       # DTB write accesses
system.cpu0.itb.data_hits                           0                       # DTB hits
system.cpu0.itb.data_misses                         0                       # DTB misses
system.cpu0.itb.data_acv                            0                       # DTB access violations
system.cpu0.itb.data_accesses                       0                       # DTB accesses
system.cpu0.numCycles                               0                       # number of cpu cycles simulated
system.cpu0.numWorkItemsStarted                     0                       # number of work items this cpu started
system.cpu0.numWorkItemsCompleted                   0                       # number of work items this cpu completed
system.cpu0.committedInsts                          0                       # Number of instructions committed
system.cpu0.committedOps                            0                       # Number of ops (including micro ops) committed
system.cpu0.num_int_alu_accesses                    0                       # Number of integer alu accesses
system.cpu0.num_fp_alu_accesses                     0                       # Number of float alu accesses
system.cpu0.num_func_calls                          0                       # number of times a function call or return occured
system.cpu0.num_conditional_control_insts            0                       # number of instructions that are conditional controls
system.cpu0.num_int_insts                           0                       # number of integer instructions
system.cpu0.num_fp_insts                            0                       # number of float instructions
system.cpu0.num_int_register_reads                  0                       # number of times the integer registers were read
system.cpu0.num_int_register_writes                 0                       # number of times the integer registers were written
system.cpu0.num_fp_register_reads                   0                       # number of times the floating registers were read
system.cpu0.num_fp_register_writes                  0                       # number of times the floating registers were written
system.cpu0.num_mem_refs                            0                       # number of memory refs
system.cpu0.num_load_insts                          0                       # Number of load instructions
system.cpu0.num_store_insts                         0                       # Number of store instructions
system.cpu0.num_idle_cycles                         0                       # Number of idle cycles
system.cpu0.num_busy_cycles                         0                       # Number of busy cycles
system.cpu0.not_idle_fraction                       1                       # Percentage of non-idle cycles
system.cpu0.idle_fraction                           0                       # Percentage of idle cycles
system.cpu0.op_class::No_OpClass                    0                       # Class of executed instruction
system.cpu0.op_class::IntAlu                        0                       # Class of executed instruction
system.cpu0.op_class::IntMult                       0                       # Class of executed instruction
system.cpu0.op_class::IntDiv                        0                       # Class of executed instruction
system.cpu0.op_class::FloatAdd                      0                       # Class of executed instruction
system.cpu0.op_class::FloatCmp                      0                       # Class of executed instruction
system.cpu0.op_class::FloatCvt                      0                       # Class of executed instruction
system.cpu0.op_class::FloatMult                     0                       # Class of executed instruction
system.cpu0.op_class::FloatDiv                      0                       # Class of executed instruction
system.cpu0.op_class::FloatSqrt                     0                       # Class of executed instruction
system.cpu0.op_class::SimdAdd                       0                       # Class of executed instruction
system.cpu0.op_class::SimdAddAcc                    0                       # Class of executed instruction
system.cpu0.op_class::SimdAlu                       0                       # Class of executed instruction
system.cpu0.op_class::SimdCmp                       0                       # Class of executed instruction
system.cpu0.op_class::SimdCvt                       0                       # Class of executed instruction
system.cpu0.op_class::SimdMisc                      0                       # Class of executed instruction
system.cpu0.op_class::SimdMult                      0                       # Class of executed instruction
system.cpu0.op_class::SimdMultAcc                   0                       # Class of executed instruction
system.cpu0.op_class::SimdShift                     0                       # Class of executed instruction
system.cpu0.op_class::SimdShiftAcc                  0                       # Class of executed instruction
system.cpu0.op_class::SimdSqrt                      0                       # Class of executed instruction
system.cpu0.op_class::SimdFloatAdd                  0                       # Class of executed instruction
system.cpu0.op_class::SimdFloatAlu                  0                       # Class of executed instruction
system.cpu0.op_class::SimdFloatCmp                  0                       # Class of executed instruction
system.cpu0.op_class::SimdFloatCvt                  0                       # Class of executed instruction
system.cpu0.op_class::SimdFloatDiv                  0                       # Class of executed instruction
system.cpu0.op_class::SimdFloatMisc                 0                       # Class of executed instruction
system.cpu0.op_class::SimdFloatMult                 0                       # Class of executed instruction
system.cpu0.op_class::SimdFloatMultAcc              0                       # Class of executed instruction
system.cpu0.op_class::SimdFloatSqrt                 0                       # Class of executed instruction
system.cpu0.op_class::MemRead                       0                       # Class of executed instruction
system.cpu0.op_class::MemWrite                      0                       # Class of executed instruction
system.cpu0.op_class::IprAccess                     0                       # Class of executed instruction
system.cpu0.op_class::InstPrefetch                  0                       # Class of executed instruction
system.cpu0.op_class::total                         0                       # Class of executed instruction
system.cpu0.kern.inst.arm                           0                       # number of arm instructions executed
system.cpu0.kern.inst.quiesce                       3                       # number of quiesce instructions executed
system.cpu0.kern.inst.hwrei                       597                       # number of hwrei instructions executed
system.cpu0.kern.ipl_count::0                     168     46.28%     46.28% # number of times we switched to this ipl
system.cpu0.kern.ipl_count::22                      1      0.28%     46.56% # number of times we switched to this ipl
system.cpu0.kern.ipl_count::30                      1      0.28%     46.83% # number of times we switched to this ipl
system.cpu0.kern.ipl_count::31                    193     53.17%    100.00% # number of times we switched to this ipl
system.cpu0.kern.ipl_count::total                 363                       # number of times we switched to this ipl
system.cpu0.kern.ipl_good::0                      168     49.85%     49.85% # number of times we switched to this ipl from a different ipl
system.cpu0.kern.ipl_good::22                       1      0.30%     50.15% # number of times we switched to this ipl from a different ipl
system.cpu0.kern.ipl_good::30                       1      0.30%     50.45% # number of times we switched to this ipl from a different ipl
system.cpu0.kern.ipl_good::31                     167     49.55%    100.00% # number of times we switched to this ipl from a different ipl
system.cpu0.kern.ipl_good::total                  337                       # number of times we switched to this ipl from a different ipl
system.cpu0.kern.ipl_ticks::0               438308000     91.51%     91.51% # number of cycles we spent at this ipl
system.cpu0.kern.ipl_ticks::22                 491500      0.10%     91.61% # number of cycles we spent at this ipl
system.cpu0.kern.ipl_ticks::30                1421500      0.30%     91.90% # number of cycles we spent at this ipl
system.cpu0.kern.ipl_ticks::31               38775000      8.10%    100.00% # number of cycles we spent at this ipl
system.cpu0.kern.ipl_ticks::total           478996000                       # number of cycles we spent at this ipl
system.cpu0.kern.ipl_used::0                        1                       # fraction of swpipl calls that actually changed the ipl
system.cpu0.kern.ipl_used::22                       1                       # fraction of swpipl calls that actually changed the ipl
system.cpu0.kern.ipl_used::30                       1                       # fraction of swpipl calls that actually changed the ipl
system.cpu0.kern.ipl_used::31                0.865285                       # fraction of swpipl calls that actually changed the ipl
system.cpu0.kern.ipl_used::total             0.928375                       # fraction of swpipl calls that actually changed the ipl
system.cpu0.kern.syscall::2                         1     33.33%     33.33% # number of syscalls executed
system.cpu0.kern.syscall::3                         1     33.33%     66.67% # number of syscalls executed
system.cpu0.kern.syscall::19                        1     33.33%    100.00% # number of syscalls executed
system.cpu0.kern.syscall::total                     3                       # number of syscalls executed
system.cpu0.kern.callpal::wripir                    1      0.26%      0.26% # number of callpals executed
system.cpu0.kern.callpal::swpctx                   12      3.08%      3.34% # number of callpals executed
system.cpu0.kern.callpal::tbi                       2      0.51%      3.86% # number of callpals executed
system.cpu0.kern.callpal::swpipl                  342     87.92%     91.77% # number of callpals executed
system.cpu0.kern.callpal::rdps                      2      0.51%     92.29% # number of callpals executed
system.cpu0.kern.callpal::rdusp                     1      0.26%     92.54% # number of callpals executed
system.cpu0.kern.callpal::rti                      19      4.88%     97.43% # number of callpals executed
system.cpu0.kern.callpal::callsys                   9      2.31%     99.74% # number of callpals executed
system.cpu0.kern.callpal::imb                       1      0.26%    100.00% # number of callpals executed
system.cpu0.kern.callpal::total                   389                       # number of callpals executed
system.cpu0.kern.mode_switch::kernel               32                       # number of protection mode switches
system.cpu0.kern.mode_switch::user                 17                       # number of protection mode switches
system.cpu0.kern.mode_switch::idle                  0                       # number of protection mode switches
system.cpu0.kern.mode_good::kernel                 18                      
system.cpu0.kern.mode_good::user                   17                      
system.cpu0.kern.mode_good::idle                    0                      
system.cpu0.kern.mode_switch_good::kernel     0.562500                       # fraction of useful protection mode switches
system.cpu0.kern.mode_switch_good::user             1                       # fraction of useful protection mode switches
system.cpu0.kern.mode_switch_good::idle           nan                       # fraction of useful protection mode switches
system.cpu0.kern.mode_switch_good::total     0.714286                       # fraction of useful protection mode switches
system.cpu0.kern.mode_ticks::kernel         118241000     69.26%     69.26% # number of ticks spent at the given mode
system.cpu0.kern.mode_ticks::user            52486000     30.74%    100.00% # number of ticks spent at the given mode
system.cpu0.kern.mode_ticks::idle                   0      0.00%    100.00% # number of ticks spent at the given mode
system.cpu0.kern.swap_context                      12                       # number of times the context was actually changed
system.cpu0.dcache.tags.replacements             4863                       # number of replacements
system.cpu0.dcache.tags.tagsinuse          503.386809                       # Cycle average of tags in use
system.cpu0.dcache.tags.total_refs              55279                       # Total number of references to valid blocks.
system.cpu0.dcache.tags.sampled_refs             4863                       # Sample count of references to valid blocks.
system.cpu0.dcache.tags.avg_refs            11.367263                       # Average number of references to valid blocks.
system.cpu0.dcache.tags.warmup_cycle                0                       # Cycle when the warmup percentage was hit.
system.cpu0.dcache.tags.occ_blocks::cpu0.data    22.309680                       # Average occupied blocks per requestor
system.cpu0.dcache.tags.occ_blocks::switch_cpus0.data   481.077129                       # Average occupied blocks per requestor
system.cpu0.dcache.tags.occ_percent::cpu0.data     0.043574                       # Average percentage of cache occupancy
system.cpu0.dcache.tags.occ_percent::switch_cpus0.data     0.939604                       # Average percentage of cache occupancy
system.cpu0.dcache.tags.occ_percent::total     0.983177                       # Average percentage of cache occupancy
system.cpu0.dcache.tags.occ_task_id_blocks::1024          501                       # Occupied blocks per task id
system.cpu0.dcache.tags.age_task_id_blocks_1024::2          501                       # Occupied blocks per task id
system.cpu0.dcache.tags.occ_task_id_percent::1024     0.978516                       # Percentage of cache occupancy per task id
system.cpu0.dcache.tags.tag_accesses           288655                       # Number of tag accesses
system.cpu0.dcache.tags.data_accesses          288655                       # Number of data accesses
system.cpu0.dcache.ReadReq_hits::switch_cpus0.data        32096                       # number of ReadReq hits
system.cpu0.dcache.ReadReq_hits::total          32096                       # number of ReadReq hits
system.cpu0.dcache.WriteReq_hits::switch_cpus0.data        14068                       # number of WriteReq hits
system.cpu0.dcache.WriteReq_hits::total         14068                       # number of WriteReq hits
system.cpu0.dcache.LoadLockedReq_hits::switch_cpus0.data          553                       # number of LoadLockedReq hits
system.cpu0.dcache.LoadLockedReq_hits::total          553                       # number of LoadLockedReq hits
system.cpu0.dcache.StoreCondReq_hits::switch_cpus0.data          599                       # number of StoreCondReq hits
system.cpu0.dcache.StoreCondReq_hits::total          599                       # number of StoreCondReq hits
system.cpu0.dcache.demand_hits::switch_cpus0.data        46164                       # number of demand (read+write) hits
system.cpu0.dcache.demand_hits::total           46164                       # number of demand (read+write) hits
system.cpu0.dcache.overall_hits::switch_cpus0.data        46164                       # number of overall hits
system.cpu0.dcache.overall_hits::total          46164                       # number of overall hits
system.cpu0.dcache.ReadReq_misses::switch_cpus0.data         9423                       # number of ReadReq misses
system.cpu0.dcache.ReadReq_misses::total         9423                       # number of ReadReq misses
system.cpu0.dcache.WriteReq_misses::switch_cpus0.data        14021                       # number of WriteReq misses
system.cpu0.dcache.WriteReq_misses::total        14021                       # number of WriteReq misses
system.cpu0.dcache.LoadLockedReq_misses::switch_cpus0.data          155                       # number of LoadLockedReq misses
system.cpu0.dcache.LoadLockedReq_misses::total          155                       # number of LoadLockedReq misses
system.cpu0.dcache.StoreCondReq_misses::switch_cpus0.data           21                       # number of StoreCondReq misses
system.cpu0.dcache.StoreCondReq_misses::total           21                       # number of StoreCondReq misses
system.cpu0.dcache.demand_misses::switch_cpus0.data        23444                       # number of demand (read+write) misses
system.cpu0.dcache.demand_misses::total         23444                       # number of demand (read+write) misses
system.cpu0.dcache.overall_misses::switch_cpus0.data        23444                       # number of overall misses
system.cpu0.dcache.overall_misses::total        23444                       # number of overall misses
system.cpu0.dcache.ReadReq_miss_latency::switch_cpus0.data    289985167                       # number of ReadReq miss cycles
system.cpu0.dcache.ReadReq_miss_latency::total    289985167                       # number of ReadReq miss cycles
system.cpu0.dcache.WriteReq_miss_latency::switch_cpus0.data    320003252                       # number of WriteReq miss cycles
system.cpu0.dcache.WriteReq_miss_latency::total    320003252                       # number of WriteReq miss cycles
system.cpu0.dcache.LoadLockedReq_miss_latency::switch_cpus0.data      2923247                       # number of LoadLockedReq miss cycles
system.cpu0.dcache.LoadLockedReq_miss_latency::total      2923247                       # number of LoadLockedReq miss cycles
system.cpu0.dcache.StoreCondReq_miss_latency::switch_cpus0.data       179503                       # number of StoreCondReq miss cycles
system.cpu0.dcache.StoreCondReq_miss_latency::total       179503                       # number of StoreCondReq miss cycles
system.cpu0.dcache.StoreCondFailReq_miss_latency::switch_cpus0.data        16000                       # number of StoreCondFailReq miss cycles
system.cpu0.dcache.StoreCondFailReq_miss_latency::total        16000                       # number of StoreCondFailReq miss cycles
system.cpu0.dcache.demand_miss_latency::switch_cpus0.data    609988419                       # number of demand (read+write) miss cycles
system.cpu0.dcache.demand_miss_latency::total    609988419                       # number of demand (read+write) miss cycles
system.cpu0.dcache.overall_miss_latency::switch_cpus0.data    609988419                       # number of overall miss cycles
system.cpu0.dcache.overall_miss_latency::total    609988419                       # number of overall miss cycles
system.cpu0.dcache.ReadReq_accesses::switch_cpus0.data        41519                       # number of ReadReq accesses(hits+misses)
system.cpu0.dcache.ReadReq_accesses::total        41519                       # number of ReadReq accesses(hits+misses)
system.cpu0.dcache.WriteReq_accesses::switch_cpus0.data        28089                       # number of WriteReq accesses(hits+misses)
system.cpu0.dcache.WriteReq_accesses::total        28089                       # number of WriteReq accesses(hits+misses)
system.cpu0.dcache.LoadLockedReq_accesses::switch_cpus0.data          708                       # number of LoadLockedReq accesses(hits+misses)
system.cpu0.dcache.LoadLockedReq_accesses::total          708                       # number of LoadLockedReq accesses(hits+misses)
system.cpu0.dcache.StoreCondReq_accesses::switch_cpus0.data          620                       # number of StoreCondReq accesses(hits+misses)
system.cpu0.dcache.StoreCondReq_accesses::total          620                       # number of StoreCondReq accesses(hits+misses)
system.cpu0.dcache.demand_accesses::switch_cpus0.data        69608                       # number of demand (read+write) accesses
system.cpu0.dcache.demand_accesses::total        69608                       # number of demand (read+write) accesses
system.cpu0.dcache.overall_accesses::switch_cpus0.data        69608                       # number of overall (read+write) accesses
system.cpu0.dcache.overall_accesses::total        69608                       # number of overall (read+write) accesses
system.cpu0.dcache.ReadReq_miss_rate::switch_cpus0.data     0.226956                       # miss rate for ReadReq accesses
system.cpu0.dcache.ReadReq_miss_rate::total     0.226956                       # miss rate for ReadReq accesses
system.cpu0.dcache.WriteReq_miss_rate::switch_cpus0.data     0.499163                       # miss rate for WriteReq accesses
system.cpu0.dcache.WriteReq_miss_rate::total     0.499163                       # miss rate for WriteReq accesses
system.cpu0.dcache.LoadLockedReq_miss_rate::switch_cpus0.data     0.218927                       # miss rate for LoadLockedReq accesses
system.cpu0.dcache.LoadLockedReq_miss_rate::total     0.218927                       # miss rate for LoadLockedReq accesses
system.cpu0.dcache.StoreCondReq_miss_rate::switch_cpus0.data     0.033871                       # miss rate for StoreCondReq accesses
system.cpu0.dcache.StoreCondReq_miss_rate::total     0.033871                       # miss rate for StoreCondReq accesses
system.cpu0.dcache.demand_miss_rate::switch_cpus0.data     0.336800                       # miss rate for demand accesses
system.cpu0.dcache.demand_miss_rate::total     0.336800                       # miss rate for demand accesses
system.cpu0.dcache.overall_miss_rate::switch_cpus0.data     0.336800                       # miss rate for overall accesses
system.cpu0.dcache.overall_miss_rate::total     0.336800                       # miss rate for overall accesses
system.cpu0.dcache.ReadReq_avg_miss_latency::switch_cpus0.data 30774.187308                       # average ReadReq miss latency
system.cpu0.dcache.ReadReq_avg_miss_latency::total 30774.187308                       # average ReadReq miss latency
system.cpu0.dcache.WriteReq_avg_miss_latency::switch_cpus0.data 22823.140432                       # average WriteReq miss latency
system.cpu0.dcache.WriteReq_avg_miss_latency::total 22823.140432                       # average WriteReq miss latency
system.cpu0.dcache.LoadLockedReq_avg_miss_latency::switch_cpus0.data 18859.658065                       # average LoadLockedReq miss latency
system.cpu0.dcache.LoadLockedReq_avg_miss_latency::total 18859.658065                       # average LoadLockedReq miss latency
system.cpu0.dcache.StoreCondReq_avg_miss_latency::switch_cpus0.data  8547.761905                       # average StoreCondReq miss latency
system.cpu0.dcache.StoreCondReq_avg_miss_latency::total  8547.761905                       # average StoreCondReq miss latency
system.cpu0.dcache.StoreCondFailReq_avg_miss_latency::switch_cpus0.data          inf                       # average StoreCondFailReq miss latency
system.cpu0.dcache.StoreCondFailReq_avg_miss_latency::total          inf                       # average StoreCondFailReq miss latency
system.cpu0.dcache.demand_avg_miss_latency::switch_cpus0.data 26018.956620                       # average overall miss latency
system.cpu0.dcache.demand_avg_miss_latency::total 26018.956620                       # average overall miss latency
system.cpu0.dcache.overall_avg_miss_latency::switch_cpus0.data 26018.956620                       # average overall miss latency
system.cpu0.dcache.overall_avg_miss_latency::total 26018.956620                       # average overall miss latency
system.cpu0.dcache.blocked_cycles::no_mshrs        21274                       # number of cycles access was blocked
system.cpu0.dcache.blocked_cycles::no_targets          233                       # number of cycles access was blocked
system.cpu0.dcache.blocked::no_mshrs             1311                       # number of cycles access was blocked
system.cpu0.dcache.blocked::no_targets              5                       # number of cycles access was blocked
system.cpu0.dcache.avg_blocked_cycles::no_mshrs    16.227307                       # average number of cycles each access was blocked
system.cpu0.dcache.avg_blocked_cycles::no_targets    46.600000                       # average number of cycles each access was blocked
system.cpu0.dcache.fast_writes                      0                       # number of fast writes performed
system.cpu0.dcache.cache_copies                     0                       # number of cache copies performed
system.cpu0.dcache.writebacks::writebacks         3488                       # number of writebacks
system.cpu0.dcache.writebacks::total             3488                       # number of writebacks
system.cpu0.dcache.ReadReq_mshr_hits::switch_cpus0.data         6632                       # number of ReadReq MSHR hits
system.cpu0.dcache.ReadReq_mshr_hits::total         6632                       # number of ReadReq MSHR hits
system.cpu0.dcache.WriteReq_mshr_hits::switch_cpus0.data        11935                       # number of WriteReq MSHR hits
system.cpu0.dcache.WriteReq_mshr_hits::total        11935                       # number of WriteReq MSHR hits
system.cpu0.dcache.LoadLockedReq_mshr_hits::switch_cpus0.data           56                       # number of LoadLockedReq MSHR hits
system.cpu0.dcache.LoadLockedReq_mshr_hits::total           56                       # number of LoadLockedReq MSHR hits
system.cpu0.dcache.demand_mshr_hits::switch_cpus0.data        18567                       # number of demand (read+write) MSHR hits
system.cpu0.dcache.demand_mshr_hits::total        18567                       # number of demand (read+write) MSHR hits
system.cpu0.dcache.overall_mshr_hits::switch_cpus0.data        18567                       # number of overall MSHR hits
system.cpu0.dcache.overall_mshr_hits::total        18567                       # number of overall MSHR hits
system.cpu0.dcache.ReadReq_mshr_misses::switch_cpus0.data         2791                       # number of ReadReq MSHR misses
system.cpu0.dcache.ReadReq_mshr_misses::total         2791                       # number of ReadReq MSHR misses
system.cpu0.dcache.WriteReq_mshr_misses::switch_cpus0.data         2086                       # number of WriteReq MSHR misses
system.cpu0.dcache.WriteReq_mshr_misses::total         2086                       # number of WriteReq MSHR misses
system.cpu0.dcache.LoadLockedReq_mshr_misses::switch_cpus0.data           99                       # number of LoadLockedReq MSHR misses
system.cpu0.dcache.LoadLockedReq_mshr_misses::total           99                       # number of LoadLockedReq MSHR misses
system.cpu0.dcache.StoreCondReq_mshr_misses::switch_cpus0.data           21                       # number of StoreCondReq MSHR misses
system.cpu0.dcache.StoreCondReq_mshr_misses::total           21                       # number of StoreCondReq MSHR misses
system.cpu0.dcache.demand_mshr_misses::switch_cpus0.data         4877                       # number of demand (read+write) MSHR misses
system.cpu0.dcache.demand_mshr_misses::total         4877                       # number of demand (read+write) MSHR misses
system.cpu0.dcache.overall_mshr_misses::switch_cpus0.data         4877                       # number of overall MSHR misses
system.cpu0.dcache.overall_mshr_misses::total         4877                       # number of overall MSHR misses
system.cpu0.dcache.WriteReq_mshr_uncacheable::switch_cpus0.data            3                       # number of WriteReq MSHR uncacheable
system.cpu0.dcache.WriteReq_mshr_uncacheable::total            3                       # number of WriteReq MSHR uncacheable
system.cpu0.dcache.overall_mshr_uncacheable_misses::switch_cpus0.data            3                       # number of overall MSHR uncacheable misses
system.cpu0.dcache.overall_mshr_uncacheable_misses::total            3                       # number of overall MSHR uncacheable misses
system.cpu0.dcache.ReadReq_mshr_miss_latency::switch_cpus0.data     80307775                       # number of ReadReq MSHR miss cycles
system.cpu0.dcache.ReadReq_mshr_miss_latency::total     80307775                       # number of ReadReq MSHR miss cycles
system.cpu0.dcache.WriteReq_mshr_miss_latency::switch_cpus0.data     47303672                       # number of WriteReq MSHR miss cycles
system.cpu0.dcache.WriteReq_mshr_miss_latency::total     47303672                       # number of WriteReq MSHR miss cycles
system.cpu0.dcache.LoadLockedReq_mshr_miss_latency::switch_cpus0.data      1940253                       # number of LoadLockedReq MSHR miss cycles
system.cpu0.dcache.LoadLockedReq_mshr_miss_latency::total      1940253                       # number of LoadLockedReq MSHR miss cycles
system.cpu0.dcache.StoreCondReq_mshr_miss_latency::switch_cpus0.data       149497                       # number of StoreCondReq MSHR miss cycles
system.cpu0.dcache.StoreCondReq_mshr_miss_latency::total       149497                       # number of StoreCondReq MSHR miss cycles
system.cpu0.dcache.StoreCondFailReq_mshr_miss_latency::switch_cpus0.data        14500                       # number of StoreCondFailReq MSHR miss cycles
system.cpu0.dcache.StoreCondFailReq_mshr_miss_latency::total        14500                       # number of StoreCondFailReq MSHR miss cycles
system.cpu0.dcache.demand_mshr_miss_latency::switch_cpus0.data    127611447                       # number of demand (read+write) MSHR miss cycles
system.cpu0.dcache.demand_mshr_miss_latency::total    127611447                       # number of demand (read+write) MSHR miss cycles
system.cpu0.dcache.overall_mshr_miss_latency::switch_cpus0.data    127611447                       # number of overall MSHR miss cycles
system.cpu0.dcache.overall_mshr_miss_latency::total    127611447                       # number of overall MSHR miss cycles
system.cpu0.dcache.WriteReq_mshr_uncacheable_latency::switch_cpus0.data       673000                       # number of WriteReq MSHR uncacheable cycles
system.cpu0.dcache.WriteReq_mshr_uncacheable_latency::total       673000                       # number of WriteReq MSHR uncacheable cycles
system.cpu0.dcache.overall_mshr_uncacheable_latency::switch_cpus0.data       673000                       # number of overall MSHR uncacheable cycles
system.cpu0.dcache.overall_mshr_uncacheable_latency::total       673000                       # number of overall MSHR uncacheable cycles
system.cpu0.dcache.ReadReq_mshr_miss_rate::switch_cpus0.data     0.067222                       # mshr miss rate for ReadReq accesses
system.cpu0.dcache.ReadReq_mshr_miss_rate::total     0.067222                       # mshr miss rate for ReadReq accesses
system.cpu0.dcache.WriteReq_mshr_miss_rate::switch_cpus0.data     0.074264                       # mshr miss rate for WriteReq accesses
system.cpu0.dcache.WriteReq_mshr_miss_rate::total     0.074264                       # mshr miss rate for WriteReq accesses
system.cpu0.dcache.LoadLockedReq_mshr_miss_rate::switch_cpus0.data     0.139831                       # mshr miss rate for LoadLockedReq accesses
system.cpu0.dcache.LoadLockedReq_mshr_miss_rate::total     0.139831                       # mshr miss rate for LoadLockedReq accesses
system.cpu0.dcache.StoreCondReq_mshr_miss_rate::switch_cpus0.data     0.033871                       # mshr miss rate for StoreCondReq accesses
system.cpu0.dcache.StoreCondReq_mshr_miss_rate::total     0.033871                       # mshr miss rate for StoreCondReq accesses
system.cpu0.dcache.demand_mshr_miss_rate::switch_cpus0.data     0.070064                       # mshr miss rate for demand accesses
system.cpu0.dcache.demand_mshr_miss_rate::total     0.070064                       # mshr miss rate for demand accesses
system.cpu0.dcache.overall_mshr_miss_rate::switch_cpus0.data     0.070064                       # mshr miss rate for overall accesses
system.cpu0.dcache.overall_mshr_miss_rate::total     0.070064                       # mshr miss rate for overall accesses
system.cpu0.dcache.ReadReq_avg_mshr_miss_latency::switch_cpus0.data 28773.835543                       # average ReadReq mshr miss latency
system.cpu0.dcache.ReadReq_avg_mshr_miss_latency::total 28773.835543                       # average ReadReq mshr miss latency
system.cpu0.dcache.WriteReq_avg_mshr_miss_latency::switch_cpus0.data 22676.736337                       # average WriteReq mshr miss latency
system.cpu0.dcache.WriteReq_avg_mshr_miss_latency::total 22676.736337                       # average WriteReq mshr miss latency
system.cpu0.dcache.LoadLockedReq_avg_mshr_miss_latency::switch_cpus0.data 19598.515152                       # average LoadLockedReq mshr miss latency
system.cpu0.dcache.LoadLockedReq_avg_mshr_miss_latency::total 19598.515152                       # average LoadLockedReq mshr miss latency
system.cpu0.dcache.StoreCondReq_avg_mshr_miss_latency::switch_cpus0.data  7118.904762                       # average StoreCondReq mshr miss latency
system.cpu0.dcache.StoreCondReq_avg_mshr_miss_latency::total  7118.904762                       # average StoreCondReq mshr miss latency
system.cpu0.dcache.StoreCondFailReq_avg_mshr_miss_latency::switch_cpus0.data          inf                       # average StoreCondFailReq mshr miss latency
system.cpu0.dcache.StoreCondFailReq_avg_mshr_miss_latency::total          inf                       # average StoreCondFailReq mshr miss latency
system.cpu0.dcache.demand_avg_mshr_miss_latency::switch_cpus0.data 26165.972319                       # average overall mshr miss latency
system.cpu0.dcache.demand_avg_mshr_miss_latency::total 26165.972319                       # average overall mshr miss latency
system.cpu0.dcache.overall_avg_mshr_miss_latency::switch_cpus0.data 26165.972319                       # average overall mshr miss latency
system.cpu0.dcache.overall_avg_mshr_miss_latency::total 26165.972319                       # average overall mshr miss latency
system.cpu0.dcache.WriteReq_avg_mshr_uncacheable_latency::switch_cpus0.data 224333.333333                       # average WriteReq mshr uncacheable latency
system.cpu0.dcache.WriteReq_avg_mshr_uncacheable_latency::total 224333.333333                       # average WriteReq mshr uncacheable latency
system.cpu0.dcache.overall_avg_mshr_uncacheable_latency::switch_cpus0.data 224333.333333                       # average overall mshr uncacheable latency
system.cpu0.dcache.overall_avg_mshr_uncacheable_latency::total 224333.333333                       # average overall mshr uncacheable latency
system.cpu0.dcache.no_allocate_misses               0                       # Number of misses that were no-allocate
system.cpu0.icache.tags.replacements             3457                       # number of replacements
system.cpu0.icache.tags.tagsinuse          511.975480                       # Cycle average of tags in use
system.cpu0.icache.tags.total_refs             259945                       # Total number of references to valid blocks.
system.cpu0.icache.tags.sampled_refs             3457                       # Sample count of references to valid blocks.
system.cpu0.icache.tags.avg_refs            75.193810                       # Average number of references to valid blocks.
system.cpu0.icache.tags.warmup_cycle                0                       # Cycle when the warmup percentage was hit.
system.cpu0.icache.tags.occ_blocks::cpu0.inst    18.434576                       # Average occupied blocks per requestor
system.cpu0.icache.tags.occ_blocks::switch_cpus0.inst   493.540904                       # Average occupied blocks per requestor
system.cpu0.icache.tags.occ_percent::cpu0.inst     0.036005                       # Average percentage of cache occupancy
system.cpu0.icache.tags.occ_percent::switch_cpus0.inst     0.963947                       # Average percentage of cache occupancy
system.cpu0.icache.tags.occ_percent::total     0.999952                       # Average percentage of cache occupancy
system.cpu0.icache.tags.occ_task_id_blocks::1024          512                       # Occupied blocks per task id
system.cpu0.icache.tags.age_task_id_blocks_1024::2          512                       # Occupied blocks per task id
system.cpu0.icache.tags.occ_task_id_percent::1024            1                       # Percentage of cache occupancy per task id
system.cpu0.icache.tags.tag_accesses            84193                       # Number of tag accesses
system.cpu0.icache.tags.data_accesses           84193                       # Number of data accesses
system.cpu0.icache.ReadReq_hits::switch_cpus0.inst        36231                       # number of ReadReq hits
system.cpu0.icache.ReadReq_hits::total          36231                       # number of ReadReq hits
system.cpu0.icache.demand_hits::switch_cpus0.inst        36231                       # number of demand (read+write) hits
system.cpu0.icache.demand_hits::total           36231                       # number of demand (read+write) hits
system.cpu0.icache.overall_hits::switch_cpus0.inst        36231                       # number of overall hits
system.cpu0.icache.overall_hits::total          36231                       # number of overall hits
system.cpu0.icache.ReadReq_misses::switch_cpus0.inst         4136                       # number of ReadReq misses
system.cpu0.icache.ReadReq_misses::total         4136                       # number of ReadReq misses
system.cpu0.icache.demand_misses::switch_cpus0.inst         4136                       # number of demand (read+write) misses
system.cpu0.icache.demand_misses::total          4136                       # number of demand (read+write) misses
[...]
system.switch_cpus3.ipc_total                0.467126                       # IPC: Total IPC of All Threads
system.switch_cpus3.int_regfile_reads          215475                       # number of integer regfile reads
system.switch_cpus3.int_regfile_writes         116913                       # number of integer regfile writes
system.switch_cpus3.fp_regfile_reads              172                       # number of floating regfile reads
system.switch_cpus3.fp_regfile_writes             162                       # number of floating regfile writes
system.switch_cpus3.misc_regfile_reads          16863                       # number of misc regfile reads
system.switch_cpus3.misc_regfile_writes          4645                       # number of misc regfile writes
system.tol2bus.trans_dist::ReadReq              34480                       # Transaction distribution
system.tol2bus.trans_dist::ReadResp             34480                       # Transaction distribution
system.tol2bus.trans_dist::WriteReq               125                       # Transaction distribution
system.tol2bus.trans_dist::WriteResp              125                       # Transaction distribution
system.tol2bus.trans_dist::Writeback            17058                       # Transaction distribution
system.tol2bus.trans_dist::UpgradeReq             273                       # Transaction distribution
system.tol2bus.trans_dist::SCUpgradeReq           105                       # Transaction distribution
system.tol2bus.trans_dist::UpgradeResp            378                       # Transaction distribution
system.tol2bus.trans_dist::ReadExReq            10085                       # Transaction distribution
system.tol2bus.trans_dist::ReadExResp           10085                       # Transaction distribution
system.tol2bus.trans_dist::BadAddressError            1                       # Transaction distribution
system.tol2bus.pkt_count_system.cpu0.icache.mem_side::system.l2.cpu_side        12501                       # Packet count per connected master and slave (bytes)
system.tol2bus.pkt_count_system.cpu0.dcache.mem_side::system.l2.cpu_side        33907                       # Packet count per connected master and slave (bytes)
system.tol2bus.pkt_count_system.cpu1.icache.mem_side::system.l2.cpu_side          110                       # Packet count per connected master and slave (bytes)
system.tol2bus.pkt_count_system.cpu1.dcache.mem_side::system.l2.cpu_side           48                       # Packet count per connected master and slave (bytes)
system.tol2bus.pkt_count_system.cpu2.icache.mem_side::system.l2.cpu_side        14930                       # Packet count per connected master and slave (bytes)
system.tol2bus.pkt_count_system.cpu2.dcache.mem_side::system.l2.cpu_side        34419                       # Packet count per connected master and slave (bytes)
system.tol2bus.pkt_count_system.cpu3.icache.mem_side::system.l2.cpu_side         4626                       # Packet count per connected master and slave (bytes)
system.tol2bus.pkt_count_system.cpu3.dcache.mem_side::system.l2.cpu_side         6010                       # Packet count per connected master and slave (bytes)
system.tol2bus.pkt_count::total                106551                       # Packet count per connected master and slave (bytes)
system.tol2bus.pkt_size_system.cpu0.icache.mem_side::system.l2.cpu_side       399936                       # Cumulative packet size per connected master and slave (bytes)
system.tol2bus.pkt_size_system.cpu0.dcache.mem_side::system.l2.cpu_side      1308959                       # Cumulative packet size per connected master and slave (bytes)
system.tol2bus.pkt_size_system.cpu1.icache.mem_side::system.l2.cpu_side         3520                       # Cumulative packet size per connected master and slave (bytes)
system.tol2bus.pkt_size_system.cpu1.dcache.mem_side::system.l2.cpu_side          664                       # Cumulative packet size per connected master and slave (bytes)
system.tol2bus.pkt_size_system.cpu2.icache.mem_side::system.l2.cpu_side       477568                       # Cumulative packet size per connected master and slave (bytes)
system.tol2bus.pkt_size_system.cpu2.dcache.mem_side::system.l2.cpu_side      1341091                       # Cumulative packet size per connected master and slave (bytes)
system.tol2bus.pkt_size_system.cpu3.icache.mem_side::system.l2.cpu_side       148032                       # Cumulative packet size per connected master and slave (bytes)
system.tol2bus.pkt_size_system.cpu3.dcache.mem_side::system.l2.cpu_side       216104                       # Cumulative packet size per connected master and slave (bytes)
system.tol2bus.pkt_size::total                3895874                       # Cumulative packet size per connected master and slave (bytes)
system.tol2bus.snoops                             644                       # Total snoops (count)
system.tol2bus.snoop_fanout::samples            62126                       # Request fanout histogram
system.tol2bus.snoop_fanout::mean                   7                       # Request fanout histogram
system.tol2bus.snoop_fanout::stdev                  0                       # Request fanout histogram
system.tol2bus.snoop_fanout::underflows             0      0.00%      0.00% # Request fanout histogram
system.tol2bus.snoop_fanout::0                      0      0.00%      0.00% # Request fanout histogram
system.tol2bus.snoop_fanout::1                      0      0.00%      0.00% # Request fanout histogram
system.tol2bus.snoop_fanout::2                      0      0.00%      0.00% # Request fanout histogram
system.tol2bus.snoop_fanout::3                      0      0.00%      0.00% # Request fanout histogram
system.tol2bus.snoop_fanout::4                      0      0.00%      0.00% # Request fanout histogram
system.tol2bus.snoop_fanout::5                      0      0.00%      0.00% # Request fanout histogram
system.tol2bus.snoop_fanout::6                      0      0.00%      0.00% # Request fanout histogram
system.tol2bus.snoop_fanout::7                  62126    100.00%    100.00% # Request fanout histogram
system.tol2bus.snoop_fanout::8                      0      0.00%    100.00% # Request fanout histogram
system.tol2bus.snoop_fanout::overflows              0      0.00%    100.00% # Request fanout histogram
system.tol2bus.snoop_fanout::min_value              7                       # Request fanout histogram
system.tol2bus.snoop_fanout::max_value              7                       # Request fanout histogram
system.tol2bus.snoop_fanout::total              62126                       # Request fanout histogram
system.tol2bus.reqLayer0.occupancy           48183999                       # Layer occupancy (ticks)
system.tol2bus.reqLayer0.utilization              3.0                       # Layer utilization (%)
system.tol2bus.respLayer0.occupancy           9639959                       # Layer occupancy (ticks)
system.tol2bus.respLayer0.utilization             0.6                       # Layer utilization (%)
system.tol2bus.respLayer1.occupancy          20273534                       # Layer occupancy (ticks)
system.tol2bus.respLayer1.utilization             1.3                       # Layer utilization (%)
system.tol2bus.respLayer2.occupancy             84999                       # Layer occupancy (ticks)
system.tol2bus.respLayer2.utilization             0.0                       # Layer utilization (%)
system.tol2bus.respLayer3.occupancy             26756                       # Layer occupancy (ticks)
system.tol2bus.respLayer3.utilization             0.0                       # Layer utilization (%)
system.tol2bus.respLayer4.occupancy          11784714                       # Layer occupancy (ticks)
system.tol2bus.respLayer4.utilization             0.7                       # Layer utilization (%)
system.tol2bus.respLayer5.occupancy          21590771                       # Layer occupancy (ticks)
system.tol2bus.respLayer5.utilization             1.3                       # Layer utilization (%)
system.tol2bus.respLayer6.occupancy           3552471                       # Layer occupancy (ticks)
system.tol2bus.respLayer6.utilization             0.2                       # Layer utilization (%)
system.tol2bus.respLayer7.occupancy           3801005                       # Layer occupancy (ticks)
system.tol2bus.respLayer7.utilization             0.2                       # Layer utilization (%)
system.tsunami.ethernet.descDMAReads                0                       # Number of descriptors the device read w/ DMA
system.tsunami.ethernet.descDMAWrites               0                       # Number of descriptors the device wrote w/ DMA
system.tsunami.ethernet.descDmaReadBytes            0                       # number of descriptor bytes read w/ DMA
system.tsunami.ethernet.descDmaWriteBytes            0                       # number of descriptor bytes write w/ DMA
system.tsunami.ethernet.postedSwi                   0                       # number of software interrupts posted to CPU
system.tsunami.ethernet.coalescedSwi              nan                       # average number of Swi's coalesced into each post
system.tsunami.ethernet.totalSwi                    0                       # total number of Swi written to ISR
system.tsunami.ethernet.postedRxIdle                0                       # number of rxIdle interrupts posted to CPU
system.tsunami.ethernet.coalescedRxIdle           nan                       # average number of RxIdle's coalesced into each post
system.tsunami.ethernet.totalRxIdle                 0                       # total number of RxIdle written to ISR
system.tsunami.ethernet.postedRxOk                  0                       # number of RxOk interrupts posted to CPU
system.tsunami.ethernet.coalescedRxOk             nan                       # average number of RxOk's coalesced into each post
system.tsunami.ethernet.totalRxOk                   0                       # total number of RxOk written to ISR
system.tsunami.ethernet.postedRxDesc                0                       # number of RxDesc interrupts posted to CPU
system.tsunami.ethernet.coalescedRxDesc           nan                       # average number of RxDesc's coalesced into each post
system.tsunami.ethernet.totalRxDesc                 0                       # total number of RxDesc written to ISR
system.tsunami.ethernet.postedTxOk                  0                       # number of TxOk interrupts posted to CPU
system.tsunami.ethernet.coalescedTxOk             nan                       # average number of TxOk's coalesced into each post
system.tsunami.ethernet.totalTxOk                   0                       # total number of TxOk written to ISR
system.tsunami.ethernet.postedTxIdle                0                       # number of TxIdle interrupts posted to CPU
system.tsunami.ethernet.coalescedTxIdle           nan                       # average number of TxIdle's coalesced into each post
system.tsunami.ethernet.totalTxIdle                 0                       # total number of TxIdle written to ISR
system.tsunami.ethernet.postedTxDesc                0                       # number of TxDesc interrupts posted to CPU
system.tsunami.ethernet.coalescedTxDesc           nan                       # average number of TxDesc's coalesced into each post
system.tsunami.ethernet.totalTxDesc                 0                       # total number of TxDesc written to ISR
system.tsunami.ethernet.postedRxOrn                 0                       # number of RxOrn posted to CPU
system.tsunami.ethernet.coalescedRxOrn            nan                       # average number of RxOrn's coalesced into each post
system.tsunami.ethernet.totalRxOrn                  0                       # total number of RxOrn written to ISR
system.tsunami.ethernet.coalescedTotal            nan                       # average number of interrupts coalesced into each post
system.tsunami.ethernet.postedInterrupts            0                       # number of posts to CPU
system.tsunami.ethernet.droppedPackets              0                       # number of packets dropped
system.switch_cpus0.kern.inst.arm                   0                       # number of arm instructions executed
system.switch_cpus0.kern.inst.quiesce               0                       # number of quiesce instructions executed
system.switch_cpus0.kern.inst.hwrei                 0                       # number of hwrei instructions executed
system.switch_cpus0.kern.mode_switch::kernel            0                       # number of protection mode switches
system.switch_cpus0.kern.mode_switch::user            0                       # number of protection mode switches
system.switch_cpus0.kern.mode_switch::idle            0                       # number of protection mode switches
system.switch_cpus0.kern.mode_good::kernel            0                      
system.switch_cpus0.kern.mode_good::user            0                      
system.switch_cpus0.kern.mode_good::idle            0                      
system.switch_cpus0.kern.mode_switch_good::kernel          nan                       # fraction of useful protection mode switches
system.switch_cpus0.kern.mode_switch_good::user          nan                       # fraction of useful protection mode switches
system.switch_cpus0.kern.mode_switch_good::idle          nan                       # fraction of useful protection mode switches
system.switch_cpus0.kern.mode_switch_good::total          nan                       # fraction of useful protection mode switches
system.switch_cpus0.kern.mode_ticks::kernel            0                       # number of ticks spent at the given mode
system.switch_cpus0.kern.mode_ticks::user            0                       # number of ticks spent at the given mode
system.switch_cpus0.kern.mode_ticks::idle            0                       # number of ticks spent at the given mode
system.switch_cpus0.kern.swap_context               0                       # number of times the context was actually changed
system.switch_cpus1.kern.inst.arm                   0                       # number of arm instructions executed
system.switch_cpus1.kern.inst.quiesce               0                       # number of quiesce instructions executed
system.switch_cpus1.kern.inst.hwrei                 0                       # number of hwrei instructions executed
system.switch_cpus1.kern.mode_switch::kernel            0                       # number of protection mode switches
system.switch_cpus1.kern.mode_switch::user            0                       # number of protection mode switches
system.switch_cpus1.kern.mode_switch::idle            0                       # number of protection mode switches
system.switch_cpus1.kern.mode_good::kernel            0                      
system.switch_cpus1.kern.mode_good::user            0                      
system.switch_cpus1.kern.mode_good::idle            0                      
system.switch_cpus1.kern.mode_switch_good::kernel          nan                       # fraction of useful protection mode switches
system.switch_cpus1.kern.mode_switch_good::user          nan                       # fraction of useful protection mode switches
system.switch_cpus1.kern.mode_switch_good::idle          nan                       # fraction of useful protection mode switches
system.switch_cpus1.kern.mode_switch_good::total          nan                       # fraction of useful protection mode switches
system.switch_cpus1.kern.mode_ticks::kernel            0                       # number of ticks spent at the given mode
system.switch_cpus1.kern.mode_ticks::user            0                       # number of ticks spent at the given mode
system.switch_cpus1.kern.mode_ticks::idle            0                       # number of ticks spent at the given mode
system.switch_cpus1.kern.swap_context               0                       # number of times the context was actually changed
system.switch_cpus2.kern.inst.arm                   0                       # number of arm instructions executed
system.switch_cpus2.kern.inst.quiesce               0                       # number of quiesce instructions executed
system.switch_cpus2.kern.inst.hwrei                 0                       # number of hwrei instructions executed
system.switch_cpus2.kern.mode_switch::kernel            0                       # number of protection mode switches
system.switch_cpus2.kern.mode_switch::user            0                       # number of protection mode switches
system.switch_cpus2.kern.mode_switch::idle            0                       # number of protection mode switches
system.switch_cpus2.kern.mode_good::kernel            0                      
system.switch_cpus2.kern.mode_good::user            0                      
system.switch_cpus2.kern.mode_good::idle            0                      
system.switch_cpus2.kern.mode_switch_good::kernel          nan                       # fraction of useful protection mode switches
system.switch_cpus2.kern.mode_switch_good::user          nan                       # fraction of useful protection mode switches
system.switch_cpus2.kern.mode_switch_good::idle          nan                       # fraction of useful protection mode switches
system.switch_cpus2.kern.mode_switch_good::total          nan                       # fraction of useful protection mode switches
system.switch_cpus2.kern.mode_ticks::kernel            0                       # number of ticks spent at the given mode
system.switch_cpus2.kern.mode_ticks::user            0                       # number of ticks spent at the given mode
system.switch_cpus2.kern.mode_ticks::idle            0                       # number of ticks spent at the given mode
system.switch_cpus2.kern.swap_context               0                       # number of times the context was actually changed
system.switch_cpus3.kern.inst.arm                   0                       # number of arm instructions executed
system.switch_cpus3.kern.inst.quiesce               0                       # number of quiesce instructions executed
system.switch_cpus3.kern.inst.hwrei                 0                       # number of hwrei instructions executed
system.switch_cpus3.kern.mode_switch::kernel            0                       # number of protection mode switches
system.switch_cpus3.kern.mode_switch::user            0                       # number of protection mode switches
system.switch_cpus3.kern.mode_switch::idle            0                       # number of protection mode switches
system.switch_cpus3.kern.mode_good::kernel            0                      
system.switch_cpus3.kern.mode_good::user            0                      
system.switch_cpus3.kern.mode_good::idle            0                      
system.switch_cpus3.kern.mode_switch_good::kernel          nan                       # fraction of useful protection mode switches
system.switch_cpus3.kern.mode_switch_good::user          nan                       # fraction of useful protection mode switches
system.switch_cpus3.kern.mode_switch_good::idle          nan                       # fraction of useful protection mode switches
system.switch_cpus3.kern.mode_switch_good::total          nan                       # fraction of useful protection mode switches
system.switch_cpus3.kern.mode_ticks::kernel            0                       # number of ticks spent at the given mode
system.switch_cpus3.kern.mode_ticks::user            0                       # number of ticks spent at the given mode
system.switch_cpus3.kern.mode_ticks::idle            0                       # number of ticks spent at the given mode
system.switch_cpus3.kern.swap_context               0                       # number of times the context was actually changed

---------- End Simulation Statistics   ----------
