
---------- Begin Simulation Statistics ----------
sim_seconds                                  0.000665                       # Number of seconds simulated
sim_ticks                                   665407500                       # Number of ticks simulated
final_tick                               2255105326500                       # Number of ticks from beginning of simulation (restored from checkpoints and never reset)
sim_freq                                 1000000000000                       # Frequency of simulated ticks
host_inst_rate                               37757950                       # Simulator instruction rate (inst/s)
host_op_rate                                 37757847                       # Simulator op (including micro ops) rate (op/s)
host_tick_rate                              256413460                       # Simulator tick rate (ticks/s)
host_mem_usage                                 736364                       # Number of bytes of host memory used
host_seconds                                     2.60                       # Real time elapsed on the host
sim_insts                                    97983523                       # Number of instructions simulated
sim_ops                                      97983523                       # Number of ops (including micro ops) simulated
system.voltage_domain.voltage                       1                       # Voltage in Volts
system.clk_domain.clock                          1000                       # Clock period in ticks
system.mem_ctrls.bytes_read::switch_cpus.inst       111424                       # Number of bytes read from this memory
system.mem_ctrls.bytes_read::switch_cpus.data       228864                       # Number of bytes read from this memory
system.mem_ctrls.bytes_read::total             340288                       # Number of bytes read from this memory
system.mem_ctrls.bytes_inst_read::switch_cpus.inst       111424                       # Number of instructions bytes read from this memory
system.mem_ctrls.bytes_inst_read::total        111424                       # Number of instructions bytes read from this memory
system.mem_ctrls.bytes_written::writebacks       154752                       # Number of bytes written to this memory
system.mem_ctrls.bytes_written::total          154752                       # Number of bytes written to this memory
system.mem_ctrls.num_reads::switch_cpus.inst         1741                       # Number of read requests responded to by this memory
system.mem_ctrls.num_reads::switch_cpus.data         3576                       # Number of read requests responded to by this memory
system.mem_ctrls.num_reads::total                5317                       # Number of read requests responded to by this memory
system.mem_ctrls.num_writes::writebacks          2418                       # Number of write requests responded to by this memory
system.mem_ctrls.num_writes::total               2418                       # Number of write requests responded to by this memory
system.mem_ctrls.bw_read::switch_cpus.inst    167452275                       # Total read bandwidth from this memory (bytes/s)
system.mem_ctrls.bw_read::switch_cpus.data    343945627                       # Total read bandwidth from this memory (bytes/s)
system.mem_ctrls.bw_read::total             511397903                       # Total read bandwidth from this memory (bytes/s)
system.mem_ctrls.bw_inst_read::switch_cpus.inst    167452275                       # Instruction read bandwidth from this memory (bytes/s)
system.mem_ctrls.bw_inst_read::total        167452275                       # Instruction read bandwidth from this memory (bytes/s)
system.mem_ctrls.bw_write::writebacks       232567261                       # Write bandwidth from this memory (bytes/s)
system.mem_ctrls.bw_write::total            232567261                       # Write bandwidth from this memory (bytes/s)
system.mem_ctrls.bw_total::writebacks       232567261                       # Total bandwidth to/from this memory (bytes/s)
system.mem_ctrls.bw_total::switch_cpus.inst    167452275                       # Total bandwidth to/from this memory (bytes/s)
system.mem_ctrls.bw_total::switch_cpus.data    343945627                       # Total bandwidth to/from this memory (bytes/s)
system.mem_ctrls.bw_total::total            743965164                       # Total bandwidth to/from this memory (bytes/s)
system.mem_ctrls.readReqs                        5317                       # Number of read requests accepted
system.mem_ctrls.writeReqs                       2418                       # Number of write requests accepted
system.mem_ctrls.readBursts                      5317                       # Number of DRAM read bursts, including those serviced by the write queue
system.mem_ctrls.writeBursts                     2418                       # Number of DRAM write bursts, including those merged in the write queue
system.mem_ctrls.bytesReadDRAM                 339264                       # Total number of bytes read from DRAM
system.mem_ctrls.bytesReadWrQ                    1024                       # Total number of bytes read from write queue
system.mem_ctrls.bytesWritten                  153792                       # Total number of bytes written to DRAM
system.mem_ctrls.bytesReadSys                  340288                       # Total read bytes from the system interface side
system.mem_ctrls.bytesWrittenSys               154752                       # Total written bytes from the system interface side
system.mem_ctrls.servicedByWrQ                     16                       # Number of DRAM read bursts serviced by the write queue
system.mem_ctrls.mergedWrBursts                     0                       # Number of DRAM write bursts merged with an existing one
system.mem_ctrls.neitherReadNorWriteReqs            0                       # Number of requests that are neither read nor write
system.mem_ctrls.perBankRdBursts::0               520                       # Per bank write bursts
system.mem_ctrls.perBankRdBursts::1               175                       # Per bank write bursts
system.mem_ctrls.perBankRdBursts::2               284                       # Per bank write bursts
system.mem_ctrls.perBankRdBursts::3               453                       # Per bank write bursts
system.mem_ctrls.perBankRdBursts::4               113                       # Per bank write bursts
system.mem_ctrls.perBankRdBursts::5               473                       # Per bank write bursts
system.mem_ctrls.perBankRdBursts::6               208                       # Per bank write bursts
system.mem_ctrls.perBankRdBursts::7               295                       # Per bank write bursts
system.mem_ctrls.perBankRdBursts::8               406                       # Per bank write bursts
system.mem_ctrls.perBankRdBursts::9               218                       # Per bank write bursts
system.mem_ctrls.perBankRdBursts::10              398                       # Per bank write bursts
system.mem_ctrls.perBankRdBursts::11              618                       # Per bank write bursts
system.mem_ctrls.perBankRdBursts::12              147                       # Per bank write bursts
system.mem_ctrls.perBankRdBursts::13              571                       # Per bank write bursts
system.mem_ctrls.perBankRdBursts::14              220                       # Per bank write bursts
system.mem_ctrls.perBankRdBursts::15              202                       # Per bank write bursts
system.mem_ctrls.perBankWrBursts::0               110                       # Per bank write bursts
system.mem_ctrls.perBankWrBursts::1                74                       # Per bank write bursts
system.mem_ctrls.perBankWrBursts::2               152                       # Per bank write bursts
system.mem_ctrls.perBankWrBursts::3               425                       # Per bank write bursts
system.mem_ctrls.perBankWrBursts::4                52                       # Per bank write bursts
system.mem_ctrls.perBankWrBursts::5               425                       # Per bank write bursts
system.mem_ctrls.perBankWrBursts::6                95                       # Per bank write bursts
system.mem_ctrls.perBankWrBursts::7               140                       # Per bank write bursts
system.mem_ctrls.perBankWrBursts::8               250                       # Per bank write bursts
system.mem_ctrls.perBankWrBursts::9                84                       # Per bank write bursts
system.mem_ctrls.perBankWrBursts::10              152                       # Per bank write bursts
system.mem_ctrls.perBankWrBursts::11              125                       # Per bank write bursts
system.mem_ctrls.perBankWrBursts::12               32                       # Per bank write bursts
system.mem_ctrls.perBankWrBursts::13              136                       # Per bank write bursts
system.mem_ctrls.perBankWrBursts::14               66                       # Per bank write bursts
system.mem_ctrls.perBankWrBursts::15               85                       # Per bank write bursts
system.mem_ctrls.numRdRetry                         0                       # Number of times read queue was full causing retry
system.mem_ctrls.numWrRetry                         0                       # Number of times write queue was full causing retry
system.mem_ctrls.totGap                     663642000                       # Total gap between requests
system.mem_ctrls.readPktSize::0                     0                       # Read request sizes (log2)
system.mem_ctrls.readPktSize::1                     0                       # Read request sizes (log2)
system.mem_ctrls.readPktSize::2                     0                       # Read request sizes (log2)
system.mem_ctrls.readPktSize::3                     0                       # Read request sizes (log2)
system.mem_ctrls.readPktSize::4                     0                       # Read request sizes (log2)
system.mem_ctrls.readPktSize::5                     0                       # Read request sizes (log2)
system.mem_ctrls.readPktSize::6                  5317                       # Read request sizes (log2)
system.mem_ctrls.writePktSize::0                    0                       # Write request sizes (log2)
system.mem_ctrls.writePktSize::1                    0                       # Write request sizes (log2)
system.mem_ctrls.writePktSize::2                    0                       # Write request sizes (log2)
system.mem_ctrls.writePktSize::3                    0                       # Write request sizes (log2)
system.mem_ctrls.writePktSize::4                    0                       # Write request sizes (log2)
system.mem_ctrls.writePktSize::5                    0                       # Write request sizes (log2)
system.mem_ctrls.writePktSize::6                 2418                       # Write request sizes (log2)
system.mem_ctrls.rdQLenPdf::0                    3288                       # What read queue length does an incoming req see
system.mem_ctrls.rdQLenPdf::1                    1268                       # What read queue length does an incoming req see
system.mem_ctrls.rdQLenPdf::2                     507                       # What read queue length does an incoming req see
system.mem_ctrls.rdQLenPdf::3                     238                       # What read queue length does an incoming req see
system.mem_ctrls.rdQLenPdf::4                       0                       # What read queue length does an incoming req see
system.mem_ctrls.rdQLenPdf::5                       0                       # What read queue length does an incoming req see
system.mem_ctrls.rdQLenPdf::6                       0                       # What read queue length does an incoming req see
system.mem_ctrls.rdQLenPdf::7                       0                       # What read queue length does an incoming req see
system.mem_ctrls.rdQLenPdf::8                       0                       # What read queue length does an incoming req see
system.mem_ctrls.rdQLenPdf::9                       0                       # What read queue length does an incoming req see
system.mem_ctrls.rdQLenPdf::10                      0                       # What read queue length does an incoming req see
system.mem_ctrls.rdQLenPdf::11                      0                       # What read queue length does an incoming req see
system.mem_ctrls.rdQLenPdf::12                      0                       # What read queue length does an incoming req see
system.mem_ctrls.rdQLenPdf::13                      0                       # What read queue length does an incoming req see
system.mem_ctrls.rdQLenPdf::14                      0                       # What read queue length does an incoming req see
system.mem_ctrls.rdQLenPdf::15                      0                       # What read queue length does an incoming req see
system.mem_ctrls.rdQLenPdf::16                      0                       # What read queue length does an incoming req see
system.mem_ctrls.rdQLenPdf::17                      0                       # What read queue length does an incoming req see
system.mem_ctrls.rdQLenPdf::18                      0                       # What read queue length does an incoming req see
system.mem_ctrls.rdQLenPdf::19                      0                       # What read queue length does an incoming req see
system.mem_ctrls.rdQLenPdf::20                      0                       # What read queue length does an incoming req see
system.mem_ctrls.rdQLenPdf::21                      0                       # What read queue length does an incoming req see
system.mem_ctrls.rdQLenPdf::22                      0                       # What read queue length does an incoming req see
system.mem_ctrls.rdQLenPdf::23                      0                       # What read queue length does an incoming req see
system.mem_ctrls.rdQLenPdf::24                      0                       # What read queue length does an incoming req see
system.mem_ctrls.rdQLenPdf::25                      0                       # What read queue length does an incoming req see
system.mem_ctrls.rdQLenPdf::26                      0                       # What read queue length does an incoming req see
system.mem_ctrls.rdQLenPdf::27                      0                       # What read queue length does an incoming req see
system.mem_ctrls.rdQLenPdf::28                      0                       # What read queue length does an incoming req see
system.mem_ctrls.rdQLenPdf::29                      0                       # What read queue length does an incoming req see
system.mem_ctrls.rdQLenPdf::30                      0                       # What read queue length does an incoming req see
system.mem_ctrls.rdQLenPdf::31                      0                       # What read queue length does an incoming req see
system.mem_ctrls.wrQLenPdf::0                       1                       # What write queue length does an incoming req see
system.mem_ctrls.wrQLenPdf::1                       1                       # What write queue length does an incoming req see
system.mem_ctrls.wrQLenPdf::2                       1                       # What write queue length does an incoming req see
system.mem_ctrls.wrQLenPdf::3                       1                       # What write queue length does an incoming req see
system.mem_ctrls.wrQLenPdf::4                       1                       # What write queue length does an incoming req see
system.mem_ctrls.wrQLenPdf::5                       1                       # What write queue length does an incoming req see
system.mem_ctrls.wrQLenPdf::6                       1                       # What write queue length does an incoming req see
system.mem_ctrls.wrQLenPdf::7                       1                       # What write queue length does an incoming req see
system.mem_ctrls.wrQLenPdf::8                       1                       # What write queue length does an incoming req see
system.mem_ctrls.wrQLenPdf::9                       1                       # What write queue length does an incoming req see
system.mem_ctrls.wrQLenPdf::10                      1                       # What write queue length does an incoming req see
system.mem_ctrls.wrQLenPdf::11                      1                       # What write queue length does an incoming req see
system.mem_ctrls.wrQLenPdf::12                      1                       # What write queue length does an incoming req see
system.mem_ctrls.wrQLenPdf::13                      1                       # What write queue length does an incoming req see
system.mem_ctrls.wrQLenPdf::14                      1                       # What write queue length does an incoming req see
system.mem_ctrls.wrQLenPdf::15                     35                       # What write queue length does an incoming req see
system.mem_ctrls.wrQLenPdf::16                     39                       # What write queue length does an incoming req see
system.mem_ctrls.wrQLenPdf::17                    105                       # What write queue length does an incoming req see
system.mem_ctrls.wrQLenPdf::18                    131                       # What write queue length does an incoming req see
system.mem_ctrls.wrQLenPdf::19                    146                       # What write queue length does an incoming req see
system.mem_ctrls.wrQLenPdf::20                    153                       # What write queue length does an incoming req see
system.mem_ctrls.wrQLenPdf::21                    152                       # What write queue length does an incoming req see
system.mem_ctrls.wrQLenPdf::22                    149                       # What write queue length does an incoming req see
system.mem_ctrls.wrQLenPdf::23                    146                       # What write queue length does an incoming req see
system.mem_ctrls.wrQLenPdf::24                    147                       # What write queue length does an incoming req see
system.mem_ctrls.wrQLenPdf::25                    149                       # What write queue length does an incoming req see
system.mem_ctrls.wrQLenPdf::26                    157                       # What write queue length does an incoming req see
system.mem_ctrls.wrQLenPdf::27                    151                       # What write queue length does an incoming req see
system.mem_ctrls.wrQLenPdf::28                    147                       # What write queue length does an incoming req see
system.mem_ctrls.wrQLenPdf::29                    159                       # What write queue length does an incoming req see
system.mem_ctrls.wrQLenPdf::30                    147                       # What write queue length does an incoming req see
system.mem_ctrls.wrQLenPdf::31                    145                       # What write queue length does an incoming req see
system.mem_ctrls.wrQLenPdf::32                    145                       # What write queue length does an incoming req see
system.mem_ctrls.wrQLenPdf::33                      0                       # What write queue length does an incoming req see
system.mem_ctrls.wrQLenPdf::34                      0                       # What write queue length does an incoming req see
system.mem_ctrls.wrQLenPdf::35                      0                       # What write queue length does an incoming req see
system.mem_ctrls.wrQLenPdf::36                      0                       # What write queue length does an incoming req see
system.mem_ctrls.wrQLenPdf::37                      0                       # What write queue length does an incoming req see
system.mem_ctrls.wrQLenPdf::38                      0                       # What write queue length does an incoming req see
system.mem_ctrls.wrQLenPdf::39                      0                       # What write queue length does an incoming req see
system.mem_ctrls.wrQLenPdf::40                      0                       # What write queue length does an incoming req see
system.mem_ctrls.wrQLenPdf::41                      0                       # What write queue length does an incoming req see
system.mem_ctrls.wrQLenPdf::42                      0                       # What write queue length does an incoming req see
system.mem_ctrls.wrQLenPdf::43                      0                       # What write queue length does an incoming req see
system.mem_ctrls.wrQLenPdf::44                      0                       # What write queue length does an incoming req see
system.mem_ctrls.wrQLenPdf::45                      0                       # What write queue length does an incoming req see
system.mem_ctrls.wrQLenPdf::46                      0                       # What write queue length does an incoming req see
system.mem_ctrls.wrQLenPdf::47                      0                       # What write queue length does an incoming req see
system.mem_ctrls.wrQLenPdf::48                      0                       # What write queue length does an incoming req see
system.mem_ctrls.wrQLenPdf::49                      0                       # What write queue length does an incoming req see
system.mem_ctrls.wrQLenPdf::50                      0                       # What write queue length does an incoming req see
system.mem_ctrls.wrQLenPdf::51                      0                       # What write queue length does an incoming req see
system.mem_ctrls.wrQLenPdf::52                      0                       # What write queue length does an incoming req see
system.mem_ctrls.wrQLenPdf::53                      0                       # What write queue length does an incoming req see
system.mem_ctrls.wrQLenPdf::54                      0                       # What write queue length does an incoming req see
system.mem_ctrls.wrQLenPdf::55                      0                       # What write queue length does an incoming req see
system.mem_ctrls.wrQLenPdf::56                      0                       # What write queue length does an incoming req see
system.mem_ctrls.wrQLenPdf::57                      0                       # What write queue length does an incoming req see
system.mem_ctrls.wrQLenPdf::58                      0                       # What write queue length does an incoming req see
system.mem_ctrls.wrQLenPdf::59                      0                       # What write queue length does an incoming req see
system.mem_ctrls.wrQLenPdf::60                      0                       # What write queue length does an incoming req see
system.mem_ctrls.wrQLenPdf::61                      0                       # What write queue length does an incoming req see
system.mem_ctrls.wrQLenPdf::62                      0                       # What write queue length does an incoming req see
system.mem_ctrls.wrQLenPdf::63                      0                       # What write queue length does an incoming req see
system.mem_ctrls.bytesPerActivate::samples         2052                       # Bytes accessed per row activation
system.mem_ctrls.bytesPerActivate::mean    240.187135                       # Bytes accessed per row activation
system.mem_ctrls.bytesPerActivate::gmean   145.937338                       # Bytes accessed per row activation
system.mem_ctrls.bytesPerActivate::stdev   278.513621                       # Bytes accessed per row activation
system.mem_ctrls.bytesPerActivate::0-127          932     45.42%     45.42% # Bytes accessed per row activation
system.mem_ctrls.bytesPerActivate::128-255          521     25.39%     70.81% # Bytes accessed per row activation
system.mem_ctrls.bytesPerActivate::256-383          184      8.97%     79.78% # Bytes accessed per row activation
system.mem_ctrls.bytesPerActivate::384-511           99      4.82%     84.60% # Bytes accessed per row activation
system.mem_ctrls.bytesPerActivate::512-639           79      3.85%     88.45% # Bytes accessed per row activation
system.mem_ctrls.bytesPerActivate::640-767           45      2.19%     90.64% # Bytes accessed per row activation
system.mem_ctrls.bytesPerActivate::768-895           25      1.22%     91.86% # Bytes accessed per row activation
system.mem_ctrls.bytesPerActivate::896-1023           30      1.46%     93.32% # Bytes accessed per row activation
system.mem_ctrls.bytesPerActivate::1024-1151          137      6.68%    100.00% # Bytes accessed per row activation
system.mem_ctrls.bytesPerActivate::total         2052                       # Bytes accessed per row activation
system.mem_ctrls.rdPerTurnAround::samples          145                       # Reads before turning the bus around for writes
system.mem_ctrls.rdPerTurnAround::mean      36.537931                       # Reads before turning the bus around for writes
system.mem_ctrls.rdPerTurnAround::gmean     31.351324                       # Reads before turning the bus around for writes
system.mem_ctrls.rdPerTurnAround::stdev     22.845502                       # Reads before turning the bus around for writes
system.mem_ctrls.rdPerTurnAround::8-15              7      4.83%      4.83% # Reads before turning the bus around for writes
system.mem_ctrls.rdPerTurnAround::16-23            45     31.03%     35.86% # Reads before turning the bus around for writes
system.mem_ctrls.rdPerTurnAround::24-31            24     16.55%     52.41% # Reads before turning the bus around for writes
system.mem_ctrls.rdPerTurnAround::32-39            24     16.55%     68.97% # Reads before turning the bus around for writes
system.mem_ctrls.rdPerTurnAround::40-47            16     11.03%     80.00% # Reads before turning the bus around for writes
system.mem_ctrls.rdPerTurnAround::48-55             8      5.52%     85.52% # Reads before turning the bus around for writes
system.mem_ctrls.rdPerTurnAround::56-63             3      2.07%     87.59% # Reads before turning the bus around for writes
system.mem_ctrls.rdPerTurnAround::64-71             5      3.45%     91.03% # Reads before turning the bus around for writes
system.mem_ctrls.rdPerTurnAround::72-79             3      2.07%     93.10% # Reads before turning the bus around for writes
system.mem_ctrls.rdPerTurnAround::80-87             4      2.76%     95.86% # Reads before turning the bus around for writes
system.mem_ctrls.rdPerTurnAround::96-103            3      2.07%     97.93% # Reads before turning the bus around for writes
system.mem_ctrls.rdPerTurnAround::104-111            1      0.69%     98.62% # Reads before turning the bus around for writes
system.mem_ctrls.rdPerTurnAround::112-119            1      0.69%     99.31% # Reads before turning the bus around for writes
system.mem_ctrls.rdPerTurnAround::136-143            1      0.69%    100.00% # Reads before turning the bus around for writes
system.mem_ctrls.rdPerTurnAround::total           145                       # Reads before turning the bus around for writes
system.mem_ctrls.wrPerTurnAround::samples          145                       # Writes before turning the bus around for reads
system.mem_ctrls.wrPerTurnAround::mean      16.572414                       # Writes before turning the bus around for reads
system.mem_ctrls.wrPerTurnAround::gmean     16.545101                       # Writes before turning the bus around for reads
system.mem_ctrls.wrPerTurnAround::stdev      0.977133                       # Writes before turning the bus around for reads
system.mem_ctrls.wrPerTurnAround::16              106     73.10%     73.10% # Writes before turning the bus around for reads
system.mem_ctrls.wrPerTurnAround::17                2      1.38%     74.48% # Writes before turning the bus around for reads
system.mem_ctrls.wrPerTurnAround::18               30     20.69%     95.17% # Writes before turning the bus around for reads
system.mem_ctrls.wrPerTurnAround::19                7      4.83%    100.00% # Writes before turning the bus around for reads
system.mem_ctrls.wrPerTurnAround::total           145                       # Writes before turning the bus around for reads
system.mem_ctrls.totQLat                     74368000                       # Total ticks spent queuing
system.mem_ctrls.totMemAccLat               173761750                       # Total ticks spent from burst creation until serviced by the DRAM
system.mem_ctrls.totBusLat                   26505000                       # Total ticks spent in databus transfers
system.mem_ctrls.avgQLat                     14029.05                       # Average queueing delay per DRAM burst
system.mem_ctrls.avgBusLat                    5000.00                       # Average bus latency per DRAM burst
system.mem_ctrls.avgMemAccLat                32779.05                       # Average memory access latency per DRAM burst
system.mem_ctrls.avgRdBW                       509.86                       # Average DRAM read bandwidth in MiByte/s
system.mem_ctrls.avgWrBW                       231.12                       # Average achieved write bandwidth in MiByte/s
system.mem_ctrls.avgRdBWSys                    511.40                       # Average system read bandwidth in MiByte/s
system.mem_ctrls.avgWrBWSys                    232.57                       # Average system write bandwidth in MiByte/s
system.mem_ctrls.peakBW                      12800.00                       # Theoretical peak bandwidth in MiByte/s
system.mem_ctrls.busUtil                         5.79                       # Data bus utilization in percentage
system.mem_ctrls.busUtilRead                     3.98                       # Data bus utilization in percentage for reads
system.mem_ctrls.busUtilWrite                    1.81                       # Data bus utilization in percentage for writes
system.mem_ctrls.avgRdQLen                       1.37                       # Average read queue length when enqueuing
system.mem_ctrls.avgWrQLen                      24.97                       # Average write queue length when enqueuing
system.mem_ctrls.readRowHits                     4054                       # Number of row buffer hits during reads
system.mem_ctrls.writeRowHits                    1595                       # Number of row buffer hits during writes
system.mem_ctrls.readRowHitRate                 76.48                       # Row buffer hit rate for reads
system.mem_ctrls.writeRowHitRate                65.96                       # Row buffer hit rate for writes
system.mem_ctrls.avgGap                      85797.29                       # Average gap between requests
system.mem_ctrls.pageHitRate                    73.18                       # Row buffer hit rate, read and write combined
system.mem_ctrls_0.actEnergy                  7741440                       # Energy for activate commands per rank (pJ)
system.mem_ctrls_0.preEnergy                  4224000                       # Energy for precharge commands per rank (pJ)
system.mem_ctrls_0.readEnergy                19656000                       # Energy for read commands per rank (pJ)
system.mem_ctrls_0.writeEnergy                9545040                       # Energy for write commands per rank (pJ)
system.mem_ctrls_0.refreshEnergy             43227600                       # Energy for refresh commands per rank (pJ)
system.mem_ctrls_0.actBackEnergy            383445270                       # Energy for active background per rank (pJ)
system.mem_ctrls_0.preBackEnergy             60899250                       # Energy for precharge background per rank (pJ)
system.mem_ctrls_0.totalEnergy              528738600                       # Total energy per rank (pJ)
system.mem_ctrls_0.averagePower            798.588714                       # Core power per rank (mW)
system.mem_ctrls_0.memoryStateTime::IDLE    100111500                       # Time in different power states
system.mem_ctrls_0.memoryStateTime::REF      22100000                       # Time in different power states
system.mem_ctrls_0.memoryStateTime::PRE_PDN            0                       # Time in different power states
system.mem_ctrls_0.memoryStateTime::ACT     540989000                       # Time in different power states
system.mem_ctrls_0.memoryStateTime::ACT_PDN            0                       # Time in different power states
system.mem_ctrls_1.actEnergy                  7771680                       # Energy for activate commands per rank (pJ)
system.mem_ctrls_1.preEnergy                  4240500                       # Energy for precharge commands per rank (pJ)
system.mem_ctrls_1.readEnergy                21668400                       # Energy for read commands per rank (pJ)
system.mem_ctrls_1.writeEnergy                6026400                       # Energy for write commands per rank (pJ)
system.mem_ctrls_1.refreshEnergy             43227600                       # Energy for refresh commands per rank (pJ)
system.mem_ctrls_1.actBackEnergy            404703990                       # Energy for active background per rank (pJ)
system.mem_ctrls_1.preBackEnergy             42251250                       # Energy for precharge background per rank (pJ)
system.mem_ctrls_1.totalEnergy              529889820                       # Total energy per rank (pJ)
system.mem_ctrls_1.averagePower            800.327478                       # Core power per rank (mW)
system.mem_ctrls_1.memoryStateTime::IDLE     68879750                       # Time in different power states
system.mem_ctrls_1.memoryStateTime::REF      22100000                       # Time in different power states
system.mem_ctrls_1.memoryStateTime::PRE_PDN            0                       # Time in different power states
system.mem_ctrls_1.memoryStateTime::ACT     572047250                       # Time in different power states
system.mem_ctrls_1.memoryStateTime::ACT_PDN            0                       # Time in different power states
system.cpu_voltage_domain.voltage                   1                       # Voltage in Volts
system.cpu_clk_domain.clock                       500                       # Clock period in ticks
system.cpu.dtb.fetch_hits                           0                       # ITB hits
system.cpu.dtb.fetch_misses                         0                       # ITB misses
system.cpu.dtb.fetch_acv                            0                       # ITB acv
system.cpu.dtb.fetch_accesses                       0                       # ITB accesses
system.cpu.dtb.read_hits                            0                       # DTB read hits
system.cpu.dtb.read_misses                          0                       # DTB read misses
system.cpu.dtb.read_acv                             0                       # DTB read access violations
system.cpu.dtb.read_accesses                        0                       # DTB read accesses
system.cpu.dtb.write_hits                           0                       # DTB write hits
system.cpu.dtb.write_misses                         0                       # DTB write misses
system.cpu.dtb.write_acv                            0                       # DTB write access violations
system.cpu.dtb.write_accesses                       0                       # DTB write accesses
system.cpu.dtb.data_hits                            0                       # DTB hits
system.cpu.dtb.data_misses                          0                       # DTB misses
system.cpu.dtb.data_acv                             0                       # DTB access violations
system.cpu.dtb.data_accesses                        0                       # DTB accesses
system.cpu.itb.fetch_hits                           0                       # ITB hits
system.cpu.itb.fetch_misses                         0                       # ITB misses
system.cpu.itb.fetch_acv                            0                       # ITB acv
system.cpu.itb.fetch_accesses                       0                       # ITB accesses
system.cpu.itb.read_hits                            0                       # DTB read hits
system.cpu.itb.read_misses                          0                       # DTB read misses
system.cpu.itb.read_acv                             0                       # DTB read access violations
system.cpu.itb.read_accesses                        0                       # DTB read accesses
system.cpu.itb.write_hits                           0                       # DTB write hits
system.cpu.itb.write_misses                         0                       # DTB write misses
system.cpu.itb.write_acv                            0                       # DTB write access violations
system.cpu.itb.write_accesses                       0                       # DTB write accesses
system.cpu.itb.data_hits                            0                       # DTB hits
system.cpu.itb.data_misses                          0                       # DTB misses
system.cpu.itb.data_acv                             0                       # DTB access violations
system.cpu.itb.data_accesses                        0                       # DTB accesses
system.cpu.numCycles                                0                       # number of cpu cycles simulated
system.cpu.numWorkItemsStarted                      0                       # number of work items this cpu started
system.cpu.numWorkItemsCompleted                    0                       # number of work items this cpu completed
system.cpu.committedInsts                           0                       # Number of instructions committed
system.cpu.committedOps                             0                       # Number of ops (including micro ops) committed
system.cpu.num_int_alu_accesses                     0                       # Number of integer alu accesses
system.cpu.num_fp_alu_accesses                      0                       # Number of float alu accesses
system.cpu.num_func_calls                           0                       # number of times a function call or return occured
system.cpu.num_conditional_control_insts            0                       # number of instructions that are conditional controls
system.cpu.num_int_insts                            0                       # number of integer instructions
system.cpu.num_fp_insts                             0                       # number of float instructions
system.cpu.num_int_register_reads                   0                       # number of times the integer registers were read
system.cpu.num_int_register_writes                  0                       # number of times the integer registers were written
system.cpu.num_fp_register_reads                    0                       # number of times the floating registers were read
system.cpu.num_fp_register_writes                   0                       # number of times the floating registers were written
system.cpu.num_mem_refs                             0                       # number of memory refs
system.cpu.num_load_insts                           0                       # Number of load instructions
system.cpu.num_store_insts                          0                       # Number of store instructions
system.cpu.num_idle_cycles                          0                       # Number of idle cycles
system.cpu.num_busy_cycles                          0                       # Number of busy cycles
system.cpu.not_idle_fraction                        1                       # Percentage of non-idle cycles
system.cpu.idle_fraction                            0                       # Percentage of idle cycles
system.cpu.op_class::No_OpClass                     0                       # Class of executed instruction
system.cpu.op_class::IntAlu                         0                       # Class of executed instruction
system.cpu.op_class::IntMult                        0                       # Class of executed instruction
system.cpu.op_class::IntDiv                         0                       # Class of executed instruction
system.cpu.op_class::FloatAdd                       0                       # Class of executed instruction
system.cpu.op_class::FloatCmp                       0                       # Class of executed instruction
system.cpu.op_class::FloatCvt                       0                       # Class of executed instruction
system.cpu.op_class::FloatMult                      0                       # Class of executed instruction
system.cpu.op_class::FloatDiv                       0                       # Class of executed instruction
system.cpu.op_class::FloatSqrt                      0                       # Class of executed instruction
system.cpu.op_class::SimdAdd                        0                       # Class of executed instruction
system.cpu.op_class::SimdAddAcc                     0                       # Class of executed instruction
system.cpu.op_class::SimdAlu                        0                       # Class of executed instruction
system.cpu.op_class::SimdCmp                        0                       # Class of executed instruction
system.cpu.op_class::SimdCvt                        0                       # Class of executed instruction
system.cpu.op_class::SimdMisc                       0                       # Class of executed instruction
system.cpu.op_class::SimdMult                       0                       # Class of executed instruction
system.cpu.op_class::SimdMultAcc                    0                       # Class of executed instruction
system.cpu.op_class::SimdShift                      0                       # Class of executed instruction
system.cpu.op_class::SimdShiftAcc                   0                       # Class of executed instruction
system.cpu.op_class::SimdSqrt                       0                       # Class of executed instruction
system.cpu.op_class::SimdFloatAdd                   0                       # Class of executed instruction
system.cpu.op_class::SimdFloatAlu                   0                       # Class of executed instruction
system.cpu.op_class::SimdFloatCmp                   0                       # Class of executed instruction
system.cpu.op_class::SimdFloatCvt                   0                       # Class of executed instruction
system.cpu.op_class::SimdFloatDiv                   0                       # Class of executed instruction
system.cpu.op_class::SimdFloatMisc                  0                       # Class of executed instruction
system.cpu.op_class::SimdFloatMult                  0                       # Class of executed instruction
system.cpu.op_class::SimdFloatMultAcc               0                       # Class of executed instruction
system.cpu.op_class::SimdFloatSqrt                  0                       # Class of executed instruction
system.cpu.op_class::MemRead                        0                       # Class of executed instruction
system.cpu.op_class::MemWrite                       0                       # Class of executed instruction
system.cpu.op_class::IprAccess                      0                       # Class of executed instruction
system.cpu.op_class::InstPrefetch                   0                       # Class of executed instruction
system.cpu.op_class::total                          0                       # Class of executed instruction
system.cpu.kern.inst.arm                            0                       # number of arm instructions executed
system.cpu.kern.inst.quiesce                        0                       # number of quiesce instructions executed
system.cpu.kern.inst.hwrei                       2781                       # number of hwrei instructions executed
system.cpu.kern.ipl_count::0                      635     49.15%     49.15% # number of times we switched to this ipl
system.cpu.kern.ipl_count::22                       1      0.08%     49.23% # number of times we switched to this ipl
system.cpu.kern.ipl_count::31                     656     50.77%    100.00% # number of times we switched to this ipl
system.cpu.kern.ipl_count::total                 1292                       # number of times we switched to this ipl
system.cpu.kern.ipl_good::0                       633     49.96%     49.96% # number of times we switched to this ipl from a different ipl
system.cpu.kern.ipl_good::22                        1      0.08%     50.04% # number of times we switched to this ipl from a different ipl
system.cpu.kern.ipl_good::31                      633     49.96%    100.00% # number of times we switched to this ipl from a different ipl
system.cpu.kern.ipl_good::total                  1267                       # number of times we switched to this ipl from a different ipl
system.cpu.kern.ipl_ticks::0                600694000     90.34%     90.34% # number of cycles we spent at this ipl
system.cpu.kern.ipl_ticks::22                 1420500      0.21%     90.56% # number of cycles we spent at this ipl
system.cpu.kern.ipl_ticks::31                62798000      9.44%    100.00% # number of cycles we spent at this ipl
system.cpu.kern.ipl_ticks::total            664912500                       # number of cycles we spent at this ipl
system.cpu.kern.ipl_used::0                  0.996850                       # fraction of swpipl calls that actually changed the ipl
system.cpu.kern.ipl_used::22                        1                       # fraction of swpipl calls that actually changed the ipl
system.cpu.kern.ipl_used::31                 0.964939                       # fraction of swpipl calls that actually changed the ipl
system.cpu.kern.ipl_used::total              0.980650                       # fraction of swpipl calls that actually changed the ipl
system.cpu.kern.syscall::2                          1      5.56%      5.56% # number of syscalls executed
system.cpu.kern.syscall::3                          2     11.11%     16.67% # number of syscalls executed
system.cpu.kern.syscall::6                          2     11.11%     27.78% # number of syscalls executed
system.cpu.kern.syscall::17                         1      5.56%     33.33% # number of syscalls executed
system.cpu.kern.syscall::19                         1      5.56%     38.89% # number of syscalls executed
system.cpu.kern.syscall::33                         1      5.56%     44.44% # number of syscalls executed
system.cpu.kern.syscall::45                         3     16.67%     61.11% # number of syscalls executed
system.cpu.kern.syscall::48                         1      5.56%     66.67% # number of syscalls executed
system.cpu.kern.syscall::59                         1      5.56%     72.22% # number of syscalls executed
system.cpu.kern.syscall::71                         4     22.22%     94.44% # number of syscalls executed
system.cpu.kern.syscall::74                         1      5.56%    100.00% # number of syscalls executed
system.cpu.kern.syscall::total                     18                       # number of syscalls executed
system.cpu.kern.callpal::swpctx                   118      8.10%      8.10% # number of callpals executed
system.cpu.kern.callpal::tbi                        6      0.41%      8.51% # number of callpals executed
system.cpu.kern.callpal::swpipl                  1107     75.98%     84.49% # number of callpals executed
system.cpu.kern.callpal::rdps                       3      0.21%     84.69% # number of callpals executed
system.cpu.kern.callpal::wrusp                      1      0.07%     84.76% # number of callpals executed
system.cpu.kern.callpal::rdusp                      1      0.07%     84.83% # number of callpals executed
system.cpu.kern.callpal::rti                      184     12.63%     97.46% # number of callpals executed
system.cpu.kern.callpal::callsys                   33      2.26%     99.73% # number of callpals executed
system.cpu.kern.callpal::imb                        4      0.27%    100.00% # number of callpals executed
system.cpu.kern.callpal::total                   1457                       # number of callpals executed
system.cpu.kern.mode_switch::kernel               302                       # number of protection mode switches
system.cpu.kern.mode_switch::user                 181                       # number of protection mode switches
system.cpu.kern.mode_switch::idle                   0                       # number of protection mode switches
system.cpu.kern.mode_good::kernel                 181                      
system.cpu.kern.mode_good::user                   181                      
system.cpu.kern.mode_good::idle                     0                      
system.cpu.kern.mode_switch_good::kernel     0.599338                       # fraction of useful protection mode switches
system.cpu.kern.mode_switch_good::user              1                       # fraction of useful protection mode switches
system.cpu.kern.mode_switch_good::idle            nan                       # fraction of useful protection mode switches
system.cpu.kern.mode_switch_good::total      0.749482                       # fraction of useful protection mode switches
system.cpu.kern.mode_ticks::kernel          433414500     65.18%     65.18% # number of ticks spent at the given mode
system.cpu.kern.mode_ticks::user            231491000     34.82%    100.00% # number of ticks spent at the given mode
system.cpu.kern.mode_ticks::idle                    0      0.00%    100.00% # number of ticks spent at the given mode
system.cpu.kern.swap_context                      118                       # number of times the context was actually changed
system.cpu.dcache.tags.replacements             18295                       # number of replacements
system.cpu.dcache.tags.tagsinuse                  512                       # Cycle average of tags in use
system.cpu.dcache.tags.total_refs              199627                       # Total number of references to valid blocks.
system.cpu.dcache.tags.sampled_refs             18295                       # Sample count of references to valid blocks.
system.cpu.dcache.tags.avg_refs             10.911561                       # Average number of references to valid blocks.
system.cpu.dcache.tags.warmup_cycle                 0                       # Cycle when the warmup percentage was hit.
system.cpu.dcache.tags.occ_blocks::cpu.data    26.388530                       # Average occupied blocks per requestor
system.cpu.dcache.tags.occ_blocks::switch_cpus.data   485.611470                       # Average occupied blocks per requestor
system.cpu.dcache.tags.occ_percent::cpu.data     0.051540                       # Average percentage of cache occupancy
system.cpu.dcache.tags.occ_percent::switch_cpus.data     0.948460                       # Average percentage of cache occupancy
system.cpu.dcache.tags.occ_percent::total            1                       # Average percentage of cache occupancy
system.cpu.dcache.tags.occ_task_id_blocks::1024          512                       # Occupied blocks per task id
system.cpu.dcache.tags.age_task_id_blocks_1024::0          358                       # Occupied blocks per task id
system.cpu.dcache.tags.age_task_id_blocks_1024::1          153                       # Occupied blocks per task id
system.cpu.dcache.tags.age_task_id_blocks_1024::2            1                       # Occupied blocks per task id
system.cpu.dcache.tags.occ_task_id_percent::1024            1                       # Percentage of cache occupancy per task id
system.cpu.dcache.tags.tag_accesses           1181603                       # Number of tag accesses
system.cpu.dcache.tags.data_accesses          1181603                       # Number of data accesses
system.cpu.dcache.ReadReq_hits::switch_cpus.data       133201                       # number of ReadReq hits
system.cpu.dcache.ReadReq_hits::total          133201                       # number of ReadReq hits
system.cpu.dcache.WriteReq_hits::switch_cpus.data        59001                       # number of WriteReq hits
system.cpu.dcache.WriteReq_hits::total          59001                       # number of WriteReq hits
system.cpu.dcache.LoadLockedReq_hits::switch_cpus.data         2235                       # number of LoadLockedReq hits
system.cpu.dcache.LoadLockedReq_hits::total         2235                       # number of LoadLockedReq hits
system.cpu.dcache.StoreCondReq_hits::switch_cpus.data         2378                       # number of StoreCondReq hits
system.cpu.dcache.StoreCondReq_hits::total         2378                       # number of StoreCondReq hits
system.cpu.dcache.demand_hits::switch_cpus.data       192202                       # number of demand (read+write) hits
system.cpu.dcache.demand_hits::total           192202                       # number of demand (read+write) hits
system.cpu.dcache.overall_hits::switch_cpus.data       192202                       # number of overall hits
system.cpu.dcache.overall_hits::total          192202                       # number of overall hits
system.cpu.dcache.ReadReq_misses::switch_cpus.data        26382                       # number of ReadReq misses
system.cpu.dcache.ReadReq_misses::total         26382                       # number of ReadReq misses
system.cpu.dcache.WriteReq_misses::switch_cpus.data        67235                       # number of WriteReq misses
system.cpu.dcache.WriteReq_misses::total        67235                       # number of WriteReq misses
system.cpu.dcache.LoadLockedReq_misses::switch_cpus.data          395                       # number of LoadLockedReq misses
system.cpu.dcache.LoadLockedReq_misses::total          395                       # number of LoadLockedReq misses
system.cpu.dcache.demand_misses::switch_cpus.data        93617                       # number of demand (read+write) misses
system.cpu.dcache.demand_misses::total          93617                       # number of demand (read+write) misses
system.cpu.dcache.overall_misses::switch_cpus.data        93617                       # number of overall misses
system.cpu.dcache.overall_misses::total         93617                       # number of overall misses
system.cpu.dcache.ReadReq_miss_latency::switch_cpus.data    699525746                       # number of ReadReq miss cycles
system.cpu.dcache.ReadReq_miss_latency::total    699525746                       # number of ReadReq miss cycles
system.cpu.dcache.WriteReq_miss_latency::switch_cpus.data   1801741968                       # number of WriteReq miss cycles
system.cpu.dcache.WriteReq_miss_latency::total   1801741968                       # number of WriteReq miss cycles
system.cpu.dcache.LoadLockedReq_miss_latency::switch_cpus.data      6952000                       # number of LoadLockedReq miss cycles
system.cpu.dcache.LoadLockedReq_miss_latency::total      6952000                       # number of LoadLockedReq miss cycles
system.cpu.dcache.demand_miss_latency::switch_cpus.data   2501267714                       # number of demand (read+write) miss cycles
system.cpu.dcache.demand_miss_latency::total   2501267714                       # number of demand (read+write) miss cycles
system.cpu.dcache.overall_miss_latency::switch_cpus.data   2501267714                       # number of overall miss cycles
system.cpu.dcache.overall_miss_latency::total   2501267714                       # number of overall miss cycles
system.cpu.dcache.ReadReq_accesses::switch_cpus.data       159583                       # number of ReadReq accesses(hits+misses)
system.cpu.dcache.ReadReq_accesses::total       159583                       # number of ReadReq accesses(hits+misses)
system.cpu.dcache.WriteReq_accesses::switch_cpus.data       126236                       # number of WriteReq accesses(hits+misses)
system.cpu.dcache.WriteReq_accesses::total       126236                       # number of WriteReq accesses(hits+misses)
system.cpu.dcache.LoadLockedReq_accesses::switch_cpus.data         2630                       # number of LoadLockedReq accesses(hits+misses)
system.cpu.dcache.LoadLockedReq_accesses::total         2630                       # number of LoadLockedReq accesses(hits+misses)
system.cpu.dcache.StoreCondReq_accesses::switch_cpus.data         2378                       # number of StoreCondReq accesses(hits+misses)
system.cpu.dcache.StoreCondReq_accesses::total         2378                       # number of StoreCondReq accesses(hits+misses)
system.cpu.dcache.demand_accesses::switch_cpus.data       285819                       # number of demand (read+write) accesses
system.cpu.dcache.demand_accesses::total       285819                       # number of demand (read+write) accesses
system.cpu.dcache.overall_accesses::switch_cpus.data       285819                       # number of overall (read+write) accesses
system.cpu.dcache.overall_accesses::total       285819                       # number of overall (read+write) accesses
system.cpu.dcache.ReadReq_miss_rate::switch_cpus.data     0.165318                       # miss rate for ReadReq accesses
system.cpu.dcache.ReadReq_miss_rate::total     0.165318                       # miss rate for ReadReq accesses
system.cpu.dcache.WriteReq_miss_rate::switch_cpus.data     0.532614                       # miss rate for WriteReq accesses
system.cpu.dcache.WriteReq_miss_rate::total     0.532614                       # miss rate for WriteReq accesses
system.cpu.dcache.LoadLockedReq_miss_rate::switch_cpus.data     0.150190                       # miss rate for LoadLockedReq accesses
system.cpu.dcache.LoadLockedReq_miss_rate::total     0.150190                       # miss rate for LoadLockedReq accesses
system.cpu.dcache.demand_miss_rate::switch_cpus.data     0.327539                       # miss rate for demand accesses
system.cpu.dcache.demand_miss_rate::total     0.327539                       # miss rate for demand accesses
system.cpu.dcache.overall_miss_rate::switch_cpus.data     0.327539                       # miss rate for overall accesses
system.cpu.dcache.overall_miss_rate::total     0.327539                       # miss rate for overall accesses
system.cpu.dcache.ReadReq_avg_miss_latency::switch_cpus.data 26515.265939                       # average ReadReq miss latency
system.cpu.dcache.ReadReq_avg_miss_latency::total 26515.265939                       # average ReadReq miss latency
system.cpu.dcache.WriteReq_avg_miss_latency::switch_cpus.data 26797.679304                       # average WriteReq miss latency
system.cpu.dcache.WriteReq_avg_miss_latency::total 26797.679304                       # average WriteReq miss latency
system.cpu.dcache.LoadLockedReq_avg_miss_latency::switch_cpus.data        17600                       # average LoadLockedReq miss latency
system.cpu.dcache.LoadLockedReq_avg_miss_latency::total        17600                       # average LoadLockedReq miss latency
system.cpu.dcache.demand_avg_miss_latency::switch_cpus.data 26718.093017                       # average overall miss latency
system.cpu.dcache.demand_avg_miss_latency::total 26718.093017                       # average overall miss latency
system.cpu.dcache.overall_avg_miss_latency::switch_cpus.data 26718.093017                       # average overall miss latency
system.cpu.dcache.overall_avg_miss_latency::total 26718.093017                       # average overall miss latency
system.cpu.dcache.blocked_cycles::no_mshrs        74918                       # number of cycles access was blocked
system.cpu.dcache.blocked_cycles::no_targets            8                       # number of cycles access was blocked
system.cpu.dcache.blocked::no_mshrs              4603                       # number of cycles access was blocked
system.cpu.dcache.blocked::no_targets               1                       # number of cycles access was blocked
system.cpu.dcache.avg_blocked_cycles::no_mshrs    16.275907                       # average number of cycles each access was blocked
system.cpu.dcache.avg_blocked_cycles::no_targets            8                       # average number of cycles each access was blocked
system.cpu.dcache.fast_writes                       0                       # number of fast writes performed
system.cpu.dcache.cache_copies                      0                       # number of cache copies performed
system.cpu.dcache.writebacks::writebacks        13039                       # number of writebacks
system.cpu.dcache.writebacks::total             13039                       # number of writebacks
system.cpu.dcache.ReadReq_mshr_hits::switch_cpus.data        17401                       # number of ReadReq MSHR hits
system.cpu.dcache.ReadReq_mshr_hits::total        17401                       # number of ReadReq MSHR hits
system.cpu.dcache.WriteReq_mshr_hits::switch_cpus.data        58140                       # number of WriteReq MSHR hits
system.cpu.dcache.WriteReq_mshr_hits::total        58140                       # number of WriteReq MSHR hits
system.cpu.dcache.LoadLockedReq_mshr_hits::switch_cpus.data          174                       # number of LoadLockedReq MSHR hits
system.cpu.dcache.LoadLockedReq_mshr_hits::total          174                       # number of LoadLockedReq MSHR hits
system.cpu.dcache.demand_mshr_hits::switch_cpus.data        75541                       # number of demand (read+write) MSHR hits
system.cpu.dcache.demand_mshr_hits::total        75541                       # number of demand (read+write) MSHR hits
system.cpu.dcache.overall_mshr_hits::switch_cpus.data        75541                       # number of overall MSHR hits
system.cpu.dcache.overall_mshr_hits::total        75541                       # number of overall MSHR hits
system.cpu.dcache.ReadReq_mshr_misses::switch_cpus.data         8981                       # number of ReadReq MSHR misses
system.cpu.dcache.ReadReq_mshr_misses::total         8981                       # number of ReadReq MSHR misses
system.cpu.dcache.WriteReq_mshr_misses::switch_cpus.data         9095                       # number of WriteReq MSHR misses
system.cpu.dcache.WriteReq_mshr_misses::total         9095                       # number of WriteReq MSHR misses
system.cpu.dcache.LoadLockedReq_mshr_misses::switch_cpus.data          221                       # number of LoadLockedReq MSHR misses
system.cpu.dcache.LoadLockedReq_mshr_misses::total          221                       # number of LoadLockedReq MSHR misses
system.cpu.dcache.demand_mshr_misses::switch_cpus.data        18076                       # number of demand (read+write) MSHR misses
system.cpu.dcache.demand_mshr_misses::total        18076                       # number of demand (read+write) MSHR misses
system.cpu.dcache.overall_mshr_misses::switch_cpus.data        18076                       # number of overall MSHR misses
system.cpu.dcache.overall_mshr_misses::total        18076                       # number of overall MSHR misses
system.cpu.dcache.WriteReq_mshr_uncacheable::switch_cpus.data            1                       # number of WriteReq MSHR uncacheable
system.cpu.dcache.WriteReq_mshr_uncacheable::total            1                       # number of WriteReq MSHR uncacheable
system.cpu.dcache.overall_mshr_uncacheable_misses::switch_cpus.data            1                       # number of overall MSHR uncacheable misses
system.cpu.dcache.overall_mshr_uncacheable_misses::total            1                       # number of overall MSHR uncacheable misses
system.cpu.dcache.ReadReq_mshr_miss_latency::switch_cpus.data    222729504                       # number of ReadReq MSHR miss cycles
system.cpu.dcache.ReadReq_mshr_miss_latency::total    222729504                       # number of ReadReq MSHR miss cycles
system.cpu.dcache.WriteReq_mshr_miss_latency::switch_cpus.data    248297312                       # number of WriteReq MSHR miss cycles
system.cpu.dcache.WriteReq_mshr_miss_latency::total    248297312                       # number of WriteReq MSHR miss cycles
system.cpu.dcache.LoadLockedReq_mshr_miss_latency::switch_cpus.data      4026500                       # number of LoadLockedReq MSHR miss cycles
system.cpu.dcache.LoadLockedReq_mshr_miss_latency::total      4026500                       # number of LoadLockedReq MSHR miss cycles
system.cpu.dcache.demand_mshr_miss_latency::switch_cpus.data    471026816                       # number of demand (read+write) MSHR miss cycles
system.cpu.dcache.demand_mshr_miss_latency::total    471026816                       # number of demand (read+write) MSHR miss cycles
system.cpu.dcache.overall_mshr_miss_latency::switch_cpus.data    471026816                       # number of overall MSHR miss cycles
system.cpu.dcache.overall_mshr_miss_latency::total    471026816                       # number of overall MSHR miss cycles
system.cpu.dcache.WriteReq_mshr_uncacheable_latency::switch_cpus.data       227500                       # number of WriteReq MSHR uncacheable cycles
system.cpu.dcache.WriteReq_mshr_uncacheable_latency::total       227500                       # number of WriteReq MSHR uncacheable cycles
system.cpu.dcache.overall_mshr_uncacheable_latency::switch_cpus.data       227500                       # number of overall MSHR uncacheable cycles
system.cpu.dcache.overall_mshr_uncacheable_latency::total       227500                       # number of overall MSHR uncacheable cycles
system.cpu.dcache.ReadReq_mshr_miss_rate::switch_cpus.data     0.056278                       # mshr miss rate for ReadReq accesses
system.cpu.dcache.ReadReq_mshr_miss_rate::total     0.056278                       # mshr miss rate for ReadReq accesses
system.cpu.dcache.WriteReq_mshr_miss_rate::switch_cpus.data     0.072048                       # mshr miss rate for WriteReq accesses
system.cpu.dcache.WriteReq_mshr_miss_rate::total     0.072048                       # mshr miss rate for WriteReq accesses
system.cpu.dcache.LoadLockedReq_mshr_miss_rate::switch_cpus.data     0.084030                       # mshr miss rate for LoadLockedReq accesses
system.cpu.dcache.LoadLockedReq_mshr_miss_rate::total     0.084030                       # mshr miss rate for LoadLockedReq accesses
system.cpu.dcache.demand_mshr_miss_rate::switch_cpus.data     0.063243                       # mshr miss rate for demand accesses
system.cpu.dcache.demand_mshr_miss_rate::total     0.063243                       # mshr miss rate for demand accesses
system.cpu.dcache.overall_mshr_miss_rate::switch_cpus.data     0.063243                       # mshr miss rate for overall accesses
system.cpu.dcache.overall_mshr_miss_rate::total     0.063243                       # mshr miss rate for overall accesses
system.cpu.dcache.ReadReq_avg_mshr_miss_latency::switch_cpus.data 24800.078388                       # average ReadReq mshr miss latency
system.cpu.dcache.ReadReq_avg_mshr_miss_latency::total 24800.078388                       # average ReadReq mshr miss latency
system.cpu.dcache.WriteReq_avg_mshr_miss_latency::switch_cpus.data 27300.419131                       # average WriteReq mshr miss latency
system.cpu.dcache.WriteReq_avg_mshr_miss_latency::total 27300.419131                       # average WriteReq mshr miss latency
system.cpu.dcache.LoadLockedReq_avg_mshr_miss_latency::switch_cpus.data 18219.457014                       # average LoadLockedReq mshr miss latency
system.cpu.dcache.LoadLockedReq_avg_mshr_miss_latency::total 18219.457014                       # average LoadLockedReq mshr miss latency
system.cpu.dcache.demand_avg_mshr_miss_latency::switch_cpus.data 26058.133215                       # average overall mshr miss latency
system.cpu.dcache.demand_avg_mshr_miss_latency::total 26058.133215                       # average overall mshr miss latency
system.cpu.dcache.overall_avg_mshr_miss_latency::switch_cpus.data 26058.133215                       # average overall mshr miss latency
system.cpu.dcache.overall_avg_mshr_miss_latency::total 26058.133215                       # average overall mshr miss latency
system.cpu.dcache.WriteReq_avg_mshr_uncacheable_latency::switch_cpus.data       227500                       # average WriteReq mshr uncacheable latency
system.cpu.dcache.WriteReq_avg_mshr_uncacheable_latency::total       227500                       # average WriteReq mshr uncacheable latency
system.cpu.dcache.overall_avg_mshr_uncacheable_latency::switch_cpus.data       227500                       # average overall mshr uncacheable latency
system.cpu.dcache.overall_avg_mshr_uncacheable_latency::total       227500                       # average overall mshr uncacheable latency
system.cpu.dcache.no_allocate_misses                0                       # Number of misses that were no-allocate
system.cpu.icache.tags.replacements             10353                       # number of replacements
system.cpu.icache.tags.tagsinuse           511.871295                       # Cycle average of tags in use
system.cpu.icache.tags.total_refs              363369                       # Total number of references to valid blocks.
system.cpu.icache.tags.sampled_refs             10353                       # Sample count of references to valid blocks.
system.cpu.icache.tags.avg_refs             35.097943                       # Average number of references to valid blocks.
system.cpu.icache.tags.warmup_cycle                 0                       # Cycle when the warmup percentage was hit.
system.cpu.icache.tags.occ_blocks::cpu.inst    22.797583                       # Average occupied blocks per requestor
system.cpu.icache.tags.occ_blocks::switch_cpus.inst   489.073713                       # Average occupied blocks per requestor
system.cpu.icache.tags.occ_percent::cpu.inst     0.044527                       # Average percentage of cache occupancy
system.cpu.icache.tags.occ_percent::switch_cpus.inst     0.955222                       # Average percentage of cache occupancy
system.cpu.icache.tags.occ_percent::total     0.999749                       # Average percentage of cache occupancy
system.cpu.icache.tags.occ_task_id_blocks::1024          511                       # Occupied blocks per task id
system.cpu.icache.tags.age_task_id_blocks_1024::0           70                       # Occupied blocks per task id
system.cpu.icache.tags.age_task_id_blocks_1024::1          122                       # Occupied blocks per task id
system.cpu.icache.tags.age_task_id_blocks_1024::2          319                       # Occupied blocks per task id
system.cpu.icache.tags.occ_task_id_percent::1024     0.998047                       # Percentage of cache occupancy per task id
system.cpu.icache.tags.tag_accesses            333850                       # Number of tag accesses
system.cpu.icache.tags.data_accesses           333850                       # Number of data accesses
system.cpu.icache.ReadReq_hits::switch_cpus.inst       149851                       # number of ReadReq hits
system.cpu.icache.ReadReq_hits::total          149851                       # number of ReadReq hits
system.cpu.icache.demand_hits::switch_cpus.inst       149851                       # number of demand (read+write) hits
system.cpu.icache.demand_hits::total           149851                       # number of demand (read+write) hits
system.cpu.icache.overall_hits::switch_cpus.inst       149851                       # number of overall hits
system.cpu.icache.overall_hits::total          149851                       # number of overall hits
system.cpu.icache.ReadReq_misses::switch_cpus.inst        11897                       # number of ReadReq misses
system.cpu.icache.ReadReq_misses::total         11897                       # number of ReadReq misses
system.cpu.icache.demand_misses::switch_cpus.inst        11897                       # number of demand (read+write) misses
system.cpu.icache.demand_misses::total          11897                       # number of demand (read+write) misses
system.cpu.icache.overall_misses::switch_cpus.inst        11897                       # number of overall misses
system.cpu.icache.overall_misses::total         11897                       # number of overall misses
system.cpu.icache.ReadReq_miss_latency::switch_cpus.inst    302840714                       # number of ReadReq miss cycles
system.cpu.icache.ReadReq_miss_latency::total    302840714                       # number of ReadReq miss cycles
system.cpu.icache.demand_miss_latency::switch_cpus.inst    302840714                       # number of demand (read+write) miss cycles
system.cpu.icache.demand_miss_latency::total    302840714                       # number of demand (read+write) miss cycles
system.cpu.icache.overall_miss_latency::switch_cpus.inst    302840714                       # number of overall miss cycles
system.cpu.icache.overall_miss_latency::total    302840714                       # number of overall miss cycles
system.cpu.icache.ReadReq_accesses::switch_cpus.inst       161748                       # number of ReadReq accesses(hits+misses)
system.cpu.icache.ReadReq_accesses::total       161748                       # number of ReadReq accesses(hits+misses)
system.cpu.icache.demand_accesses::switch_cpus.inst       161748                       # number of demand (read+write) accesses
system.cpu.icache.demand_accesses::total       161748                       # number of demand (read+write) accesses
system.cpu.icache.overall_accesses::switch_cpus.inst       161748                       # number of overall (read+write) accesses
system.cpu.icache.overall_accesses::total       161748                       # number of overall (read+write) accesses
system.cpu.icache.ReadReq_miss_rate::switch_cpus.inst     0.073553                       # miss rate for ReadReq accesses
system.cpu.icache.ReadReq_miss_rate::total     0.073553                       # miss rate for ReadReq accesses
system.cpu.icache.demand_miss_rate::switch_cpus.inst     0.073553                       # miss rate for demand accesses
system.cpu.icache.demand_miss_rate::total     0.073553                       # miss rate for demand accesses
system.cpu.icache.overall_miss_rate::switch_cpus.inst     0.073553                       # miss rate for overall accesses
system.cpu.icache.overall_miss_rate::total     0.073553                       # miss rate for overall accesses
system.cpu.icache.ReadReq_avg_miss_latency::switch_cpus.inst 25455.216777                       # average ReadReq miss latency
system.cpu.icache.ReadReq_avg_miss_latency::total 25455.216777                       # average ReadReq miss latency
system.cpu.icache.demand_avg_miss_latency::switch_cpus.inst 25455.216777                       # average overall miss latency
system.cpu.icache.demand_avg_miss_latency::total 25455.216777                       # average overall miss latency
system.cpu.icache.overall_avg_miss_latency::switch_cpus.inst 25455.216777                       # average overall miss latency
system.cpu.icache.overall_avg_miss_latency::total 25455.216777                       # average overall miss latency
system.cpu.icache.blocked_cycles::no_mshrs         2158                       # number of cycles access was blocked
system.cpu.icache.blocked_cycles::no_targets            0                       # number of cycles access was blocked
system.cpu.icache.blocked::no_mshrs                77                       # number of cycles access was blocked
system.cpu.icache.blocked::no_targets               0                       # number of cycles access was blocked
system.cpu.icache.avg_blocked_cycles::no_mshrs    28.025974                       # average number of cycles each access was blocked
system.cpu.icache.avg_blocked_cycles::no_targets          nan                       # average number of cycles each access was blocked
system.cpu.icache.fast_writes                       0                       # number of fast writes performed
system.cpu.icache.cache_copies                      0                       # number of cache copies performed
system.cpu.icache.ReadReq_mshr_hits::switch_cpus.inst         1543                       # number of ReadReq MSHR hits
system.cpu.icache.ReadReq_mshr_hits::total         1543                       # number of ReadReq MSHR hits
system.cpu.icache.demand_mshr_hits::switch_cpus.inst         1543                       # number of demand (read+write) MSHR hits
system.cpu.icache.demand_mshr_hits::total         1543                       # number of demand (read+write) MSHR hits
system.cpu.icache.overall_mshr_hits::switch_cpus.inst         1543                       # number of overall MSHR hits
system.cpu.icache.overall_mshr_hits::total         1543                       # number of overall MSHR hits
system.cpu.icache.ReadReq_mshr_misses::switch_cpus.inst        10354                       # number of ReadReq MSHR misses
system.cpu.icache.ReadReq_mshr_misses::total        10354                       # number of ReadReq MSHR misses
system.cpu.icache.demand_mshr_misses::switch_cpus.inst        10354                       # number of demand (read+write) MSHR misses
system.cpu.icache.demand_mshr_misses::total        10354                       # number of demand (read+write) MSHR misses
system.cpu.icache.overall_mshr_misses::switch_cpus.inst        10354                       # number of overall MSHR misses
system.cpu.icache.overall_mshr_misses::total        10354                       # number of overall MSHR misses
system.cpu.icache.ReadReq_mshr_miss_latency::switch_cpus.inst    243680771                       # number of ReadReq MSHR miss cycles
system.cpu.icache.ReadReq_mshr_miss_latency::total    243680771                       # number of ReadReq MSHR miss cycles
system.cpu.icache.demand_mshr_miss_latency::switch_cpus.inst    243680771                       # number of demand (read+write) MSHR miss cycles
system.cpu.icache.demand_mshr_miss_latency::total    243680771                       # number of demand (read+write) MSHR miss cycles
system.cpu.icache.overall_mshr_miss_latency::switch_cpus.inst    243680771                       # number of overall MSHR miss cycles
system.cpu.icache.overall_mshr_miss_latency::total    243680771                       # number of overall MSHR miss cycles
system.cpu.icache.ReadReq_mshr_miss_rate::switch_cpus.inst     0.064013                       # mshr miss rate for ReadReq accesses
system.cpu.icache.ReadReq_mshr_miss_rate::total     0.064013                       # mshr miss rate for ReadReq accesses
system.cpu.icache.demand_mshr_miss_rate::switch_cpus.inst     0.064013                       # mshr miss rate for demand accesses
system.cpu.icache.demand_mshr_miss_rate::total     0.064013                       # mshr miss rate for demand accesses
system.cpu.icache.overall_mshr_miss_rate::switch_cpus.inst     0.064013                       # mshr miss rate for overall accesses
system.cpu.icache.overall_mshr_miss_rate::total     0.064013                       # mshr miss rate for overall accesses
system.cpu.icache.ReadReq_avg_mshr_miss_latency::switch_cpus.inst 23534.940216                       # average ReadReq mshr miss latency
system.cpu.icache.ReadReq_avg_mshr_miss_latency::total 23534.940216                       # average ReadReq mshr miss latency
system.cpu.icache.demand_avg_mshr_miss_latency::switch_cpus.inst 23534.940216                       # average overall mshr miss latency
system.cpu.icache.demand_avg_mshr_miss_latency::total 23534.940216                       # average overall mshr miss latency
system.cpu.icache.overall_avg_mshr_miss_latency::switch_cpus.inst 23534.940216                       # average overall mshr miss latency
system.cpu.icache.overall_avg_mshr_miss_latency::total 23534.940216                       # average overall mshr miss latency
[...]
system.switch_cpus.iew.wb_fanout             0.761434                       # average fanout of values written-back
system.switch_cpus.iew.wb_penalized_rate            0                       # fraction of instructions written-back that wrote to 'other' IQ
system.switch_cpus.commit.commitSquashedInsts    273607213                       # The number of squashed insts skipped by commit
system.switch_cpus.commit.commitNonSpecStalls      3731050                       # The number of times commit has been forced to stall to communicate backwards
system.switch_cpus.commit.branchMispredicts      4248247                       # The number of times a branch was mispredicted
system.switch_cpus.commit.committed_per_cycle::samples   1117458430                       # Number of insts commited each cycle
system.switch_cpus.commit.committed_per_cycle::mean     0.147399                       # Number of insts commited each cycle
system.switch_cpus.commit.committed_per_cycle::stdev     0.764086                       # Number of insts commited each cycle
system.switch_cpus.commit.committed_per_cycle::underflows            0      0.00%      0.00% # Number of insts commited each cycle
system.switch_cpus.commit.committed_per_cycle::0   1041304858     93.19%     93.19% # Number of insts commited each cycle
system.switch_cpus.commit.committed_per_cycle::1     43777605      3.92%     97.10% # Number of insts commited each cycle
system.switch_cpus.commit.committed_per_cycle::2     18080849      1.62%     98.72% # Number of insts commited each cycle
system.switch_cpus.commit.committed_per_cycle::3      2203320      0.20%     98.92% # Number of insts commited each cycle
system.switch_cpus.commit.committed_per_cycle::4      3163472      0.28%     99.20% # Number of insts commited each cycle
system.switch_cpus.commit.committed_per_cycle::5      1134664      0.10%     99.30% # Number of insts commited each cycle
system.switch_cpus.commit.committed_per_cycle::6       335787      0.03%     99.33% # Number of insts commited each cycle
system.switch_cpus.commit.committed_per_cycle::7      1841647      0.16%     99.50% # Number of insts commited each cycle
system.switch_cpus.commit.committed_per_cycle::8      5616228      0.50%    100.00% # Number of insts commited each cycle
system.switch_cpus.commit.committed_per_cycle::overflows            0      0.00%    100.00% # Number of insts commited each cycle
system.switch_cpus.commit.committed_per_cycle::min_value            0                       # Number of insts commited each cycle
system.switch_cpus.commit.committed_per_cycle::max_value            8                       # Number of insts commited each cycle
system.switch_cpus.commit.committed_per_cycle::total   1117458430                       # Number of insts commited each cycle
system.switch_cpus.commit.committedInsts    164712546                       # Number of instructions committed
system.switch_cpus.commit.committedOps      164712546                       # Number of ops (including micro ops) committed
system.switch_cpus.commit.swp_count                 0                       # Number of s/w prefetches committed
system.switch_cpus.commit.refs               36941848                       # Number of memory references committed
system.switch_cpus.commit.loads              25446872                       # Number of loads committed
system.switch_cpus.commit.membars             2505952                       # Number of memory barriers committed
system.switch_cpus.commit.branches           23953887                       # Number of branches committed
system.switch_cpus.commit.fp_insts            8404594                       # Number of committed floating point instructions.
system.switch_cpus.commit.int_insts         137727860                       # Number of committed integer instructions.
system.switch_cpus.commit.function_calls      1941224                       # Number of function calls committed.
system.switch_cpus.commit.op_class_0::No_OpClass     12927924      7.85%      7.85% # Class of committed instruction
system.switch_cpus.commit.op_class_0::IntAlu     73038275     44.34%     52.19% # Class of committed instruction
system.switch_cpus.commit.op_class_0::IntMult        22007      0.01%     52.21% # Class of committed instruction
system.switch_cpus.commit.op_class_0::IntDiv            0      0.00%     52.21% # Class of committed instruction
system.switch_cpus.commit.op_class_0::FloatAdd      6401336      3.89%     56.09% # Class of committed instruction
system.switch_cpus.commit.op_class_0::FloatCmp            2      0.00%     56.09% # Class of committed instruction
system.switch_cpus.commit.op_class_0::FloatCvt      2000004      1.21%     57.31% # Class of committed instruction
system.switch_cpus.commit.op_class_0::FloatMult            2      0.00%     57.31% # Class of committed instruction
system.switch_cpus.commit.op_class_0::FloatDiv          245      0.00%     57.31% # Class of committed instruction
system.switch_cpus.commit.op_class_0::FloatSqrt            0      0.00%     57.31% # Class of committed instruction
system.switch_cpus.commit.op_class_0::SimdAdd            0      0.00%     57.31% # Class of committed instruction
system.switch_cpus.commit.op_class_0::SimdAddAcc            0      0.00%     57.31% # Class of committed instruction
system.switch_cpus.commit.op_class_0::SimdAlu            0      0.00%     57.31% # Class of committed instruction
system.switch_cpus.commit.op_class_0::SimdCmp            0      0.00%     57.31% # Class of committed instruction
system.switch_cpus.commit.op_class_0::SimdCvt            0      0.00%     57.31% # Class of committed instruction
system.switch_cpus.commit.op_class_0::SimdMisc            0      0.00%     57.31% # Class of committed instruction
system.switch_cpus.commit.op_class_0::SimdMult            0      0.00%     57.31% # Class of committed instruction
system.switch_cpus.commit.op_class_0::SimdMultAcc            0      0.00%     57.31% # Class of committed instruction
system.switch_cpus.commit.op_class_0::SimdShift            0      0.00%     57.31% # Class of committed instruction
system.switch_cpus.commit.op_class_0::SimdShiftAcc            0      0.00%     57.31% # Class of committed instruction
system.switch_cpus.commit.op_class_0::SimdSqrt            0      0.00%     57.31% # Class of committed instruction
system.switch_cpus.commit.op_class_0::SimdFloatAdd            0      0.00%     57.31% # Class of committed instruction
system.switch_cpus.commit.op_class_0::SimdFloatAlu            0      0.00%     57.31% # Class of committed instruction
system.switch_cpus.commit.op_class_0::SimdFloatCmp            0      0.00%     57.31% # Class of committed instruction
system.switch_cpus.commit.op_class_0::SimdFloatCvt            0      0.00%     57.31% # Class of committed instruction
system.switch_cpus.commit.op_class_0::SimdFloatDiv            0      0.00%     57.31% # Class of committed instruction
system.switch_cpus.commit.op_class_0::SimdFloatMisc            0      0.00%     57.31% # Class of committed instruction
system.switch_cpus.commit.op_class_0::SimdFloatMult            0      0.00%     57.31% # Class of committed instruction
system.switch_cpus.commit.op_class_0::SimdFloatMultAcc            0      0.00%     57.31% # Class of committed instruction
system.switch_cpus.commit.op_class_0::SimdFloatSqrt            0      0.00%     57.31% # Class of committed instruction
system.switch_cpus.commit.op_class_0::MemRead     27952824     16.97%     74.28% # Class of committed instruction
system.switch_cpus.commit.op_class_0::MemWrite     11496558      6.98%     81.26% # Class of committed instruction
system.switch_cpus.commit.op_class_0::IprAccess     30873369     18.74%    100.00% # Class of committed instruction
system.switch_cpus.commit.op_class_0::InstPrefetch            0      0.00%    100.00% # Class of committed instruction
system.switch_cpus.commit.op_class_0::total    164712546                       # Class of committed instruction
system.switch_cpus.commit.bw_lim_events       5616228                       # number cycles where commit BW limit reached
system.switch_cpus.rob.rob_reads           1510207134                       # The number of ROB reads
system.switch_cpus.rob.rob_writes           916209423                       # The number of ROB writes
system.switch_cpus.timesIdled                  115175                       # Number of times that the entire CPU went into an idle state and unscheduled itself
system.switch_cpus.idleCycles                13445955                       # Total number of cycles that the CPU has spent unscheduled due to idling
system.switch_cpus.quiesceCycles               204032                       # Total number of cycles that CPU has spent quiesced or waiting for an interrupt
system.switch_cpus.committedInsts           151785114                       # Number of Instructions Simulated
system.switch_cpus.committedOps             151785114                       # Number of Ops (including micro ops) Simulated
system.switch_cpus.cpi                       7.711388                       # CPI: Cycles Per Instruction
system.switch_cpus.cpi_total                 7.711388                       # CPI: Total CPI of All Threads
system.switch_cpus.ipc                       0.129678                       # IPC: Instructions Per Cycle
system.switch_cpus.ipc_total                 0.129678                       # IPC: Total IPC of All Threads
system.switch_cpus.int_regfile_reads        255038190                       # number of integer regfile reads
system.switch_cpus.int_regfile_writes       146418634                       # number of integer regfile writes
system.switch_cpus.fp_regfile_reads          13476446                       # number of floating regfile reads
system.switch_cpus.fp_regfile_writes          9745268                       # number of floating regfile writes
system.switch_cpus.misc_regfile_reads        30536735                       # number of misc regfile reads
system.switch_cpus.misc_regfile_writes       14973281                       # number of misc regfile writes
system.tol2bus.trans_dist::ReadReq            5517385                       # Transaction distribution
system.tol2bus.trans_dist::ReadResp           5517385                       # Transaction distribution
system.tol2bus.trans_dist::WriteReq               788                       # Transaction distribution
system.tol2bus.trans_dist::WriteResp              788                       # Transaction distribution
system.tol2bus.trans_dist::Writeback          1207227                       # Transaction distribution
system.tol2bus.trans_dist::WriteInvalidateReq         1153                       # Transaction distribution
system.tol2bus.trans_dist::UpgradeReq               2                       # Transaction distribution
system.tol2bus.trans_dist::SCUpgradeReq             2                       # Transaction distribution
system.tol2bus.trans_dist::UpgradeResp              4                       # Transaction distribution
system.tol2bus.trans_dist::ReadExReq            59856                       # Transaction distribution
system.tol2bus.trans_dist::ReadExResp           59856                       # Transaction distribution
system.tol2bus.pkt_count_system.cpu.icache.mem_side::system.l2.cpu_side        62384                       # Packet count per connected master and slave (bytes)
system.tol2bus.pkt_count_system.cpu.dcache.mem_side::system.l2.cpu_side     12300902                       # Packet count per connected master and slave (bytes)
system.tol2bus.pkt_count::total              12363286                       # Packet count per connected master and slave (bytes)
system.tol2bus.pkt_size_system.cpu.icache.mem_side::system.l2.cpu_side      1996160                       # Cumulative packet size per connected master and slave (bytes)
system.tol2bus.pkt_size_system.cpu.dcache.mem_side::system.l2.cpu_side    432189039                       # Cumulative packet size per connected master and slave (bytes)
system.tol2bus.pkt_size::total              434185199                       # Cumulative packet size per connected master and slave (bytes)
system.tol2bus.snoops                            1161                       # Total snoops (count)
system.tol2bus.snoop_fanout::samples          6786413                       # Request fanout histogram
system.tol2bus.snoop_fanout::mean            1.000170                       # Request fanout histogram
system.tol2bus.snoop_fanout::stdev           0.013045                       # Request fanout histogram
system.tol2bus.snoop_fanout::underflows             0      0.00%      0.00% # Request fanout histogram
system.tol2bus.snoop_fanout::0                      0      0.00%      0.00% # Request fanout histogram
system.tol2bus.snoop_fanout::1                6785258     99.98%     99.98% # Request fanout histogram
system.tol2bus.snoop_fanout::2                   1155      0.02%    100.00% # Request fanout histogram
system.tol2bus.snoop_fanout::overflows              0      0.00%    100.00% # Request fanout histogram
system.tol2bus.snoop_fanout::min_value              1                       # Request fanout histogram
system.tol2bus.snoop_fanout::max_value              2                       # Request fanout histogram
system.tol2bus.snoop_fanout::total            6786413                       # Request fanout histogram
system.tol2bus.reqLayer0.occupancy         4600250000                       # Layer occupancy (ticks)
system.tol2bus.reqLayer0.utilization              0.8                       # Layer utilization (%)
system.tol2bus.snoopLayer0.occupancy             1500                       # Layer occupancy (ticks)
system.tol2bus.snoopLayer0.utilization            0.0                       # Layer utilization (%)
system.tol2bus.respLayer0.occupancy          48352136                       # Layer occupancy (ticks)
system.tol2bus.respLayer0.utilization             0.0                       # Layer utilization (%)
system.tol2bus.respLayer1.occupancy        9007326999                       # Layer occupancy (ticks)
system.tol2bus.respLayer1.utilization             1.5                       # Layer utilization (%)
system.tsunami.ethernet.descDMAReads                0                       # Number of descriptors the device read w/ DMA
system.tsunami.ethernet.descDMAWrites               0                       # Number of descriptors the device wrote w/ DMA
system.tsunami.ethernet.descDmaReadBytes            0                       # number of descriptor bytes read w/ DMA
system.tsunami.ethernet.descDmaWriteBytes            0                       # number of descriptor bytes write w/ DMA
system.tsunami.ethernet.postedSwi                   0                       # number of software interrupts posted to CPU
system.tsunami.ethernet.coalescedSwi              nan                       # average number of Swi's coalesced into each post
system.tsunami.ethernet.totalSwi                    0                       # total number of Swi written to ISR
system.tsunami.ethernet.postedRxIdle                0                       # number of rxIdle interrupts posted to CPU
system.tsunami.ethernet.coalescedRxIdle           nan                       # average number of RxIdle's coalesced into each post
system.tsunami.ethernet.totalRxIdle                 0                       # total number of RxIdle written to ISR
system.tsunami.ethernet.postedRxOk                  0                       # number of RxOk interrupts posted to CPU
system.tsunami.ethernet.coalescedRxOk             nan                       # average number of RxOk's coalesced into each post
system.tsunami.ethernet.totalRxOk                   0                       # total number of RxOk written to ISR
system.tsunami.ethernet.postedRxDesc                0                       # number of RxDesc interrupts posted to CPU
system.tsunami.ethernet.coalescedRxDesc           nan                       # average number of RxDesc's coalesced into each post
system.tsunami.ethernet.totalRxDesc                 0                       # total number of RxDesc written to ISR
system.tsunami.ethernet.postedTxOk                  0                       # number of TxOk interrupts posted to CPU
system.tsunami.ethernet.coalescedTxOk             nan                       # average number of TxOk's coalesced into each post
system.tsunami.ethernet.totalTxOk                   0                       # total number of TxOk written to ISR
system.tsunami.ethernet.postedTxIdle                0                       # number of TxIdle interrupts posted to CPU
system.tsunami.ethernet.coalescedTxIdle           nan                       # average number of TxIdle's coalesced into each post
system.tsunami.ethernet.totalTxIdle                 0                       # total number of TxIdle written to ISR
system.tsunami.ethernet.postedTxDesc                0                       # number of TxDesc interrupts posted to CPU
system.tsunami.ethernet.coalescedTxDesc           nan                       # average number of TxDesc's coalesced into each post
system.tsunami.ethernet.totalTxDesc                 0                       # total number of TxDesc written to ISR
system.tsunami.ethernet.postedRxOrn                 0                       # number of RxOrn posted to CPU
system.tsunami.ethernet.coalescedRxOrn            nan                       # average number of RxOrn's coalesced into each post
system.tsunami.ethernet.totalRxOrn                  0                       # total number of RxOrn written to ISR
system.tsunami.ethernet.coalescedTotal            nan                       # average number of interrupts coalesced into each post
system.tsunami.ethernet.postedInterrupts            0                       # number of posts to CPU
system.tsunami.ethernet.droppedPackets              0                       # number of packets dropped
system.switch_cpus.kern.inst.arm                    0                       # number of arm instructions executed
system.switch_cpus.kern.inst.quiesce                0                       # number of quiesce instructions executed
system.switch_cpus.kern.inst.hwrei                  0                       # number of hwrei instructions executed
system.switch_cpus.kern.mode_switch::kernel            0                       # number of protection mode switches
system.switch_cpus.kern.mode_switch::user            0                       # number of protection mode switches
system.switch_cpus.kern.mode_switch::idle            0                       # number of protection mode switches
system.switch_cpus.kern.mode_good::kernel            0                      
system.switch_cpus.kern.mode_good::user             0                      
system.switch_cpus.kern.mode_good::idle             0                      
system.switch_cpus.kern.mode_switch_good::kernel          nan                       # fraction of useful protection mode switches
system.switch_cpus.kern.mode_switch_good::user          nan                       # fraction of useful protection mode switches
system.switch_cpus.kern.mode_switch_good::idle          nan                       # fraction of useful protection mode switches
system.switch_cpus.kern.mode_switch_good::total          nan                       # fraction of useful protection mode switches
system.switch_cpus.kern.mode_ticks::kernel            0                       # number of ticks spent at the given mode
system.switch_cpus.kern.mode_ticks::user            0                       # number of ticks spent at the given mode
system.switch_cpus.kern.mode_ticks::idle            0                       # number of ticks spent at the given mode
system.switch_cpus.kern.swap_context                0                       # number of times the context was actually changed

---------- End Simulation Statistics   ----------
