
---------- Begin Simulation Statistics ----------
sim_seconds                                  0.001188                       # Number of seconds simulated
sim_ticks                                  1187702000                       # Number of ticks simulated
final_tick                               2262439154000                       # Number of ticks from beginning of simulation (restored from checkpoints and never reset)
sim_freq                                 1000000000000                       # Frequency of simulated ticks
host_inst_rate                               33455994                       # Simulator instruction rate (inst/s)
host_op_rate                                 33455921                       # Simulator op (including micro ops) rate (op/s)
host_tick_rate                              337065188                       # Simulator tick rate (ticks/s)
host_mem_usage                                 740884                       # Number of bytes of host memory used
host_seconds                                     3.52                       # Real time elapsed on the host
sim_insts                                   117886947                       # Number of instructions simulated
sim_ops                                     117886947                       # Number of ops (including micro ops) simulated
system.voltage_domain.voltage                       1                       # Voltage in Volts
system.clk_domain.clock                          1000                       # Clock period in ticks
system.mem_ctrls.bytes_read::switch_cpus0.inst       179968                       # Number of bytes read from this memory
system.mem_ctrls.bytes_read::switch_cpus0.data       245440                       # Number of bytes read from this memory
system.mem_ctrls.bytes_read::switch_cpus1.inst        74176                       # Number of bytes read from this memory
system.mem_ctrls.bytes_read::switch_cpus1.data       129280                       # Number of bytes read from this memory
system.mem_ctrls.bytes_read::switch_cpus2.inst         3584                       # Number of bytes read from this memory
system.mem_ctrls.bytes_read::switch_cpus2.data         2432                       # Number of bytes read from this memory
system.mem_ctrls.bytes_read::switch_cpus3.inst       239616                       # Number of bytes read from this memory
system.mem_ctrls.bytes_read::switch_cpus3.data       693440                       # Number of bytes read from this memory
system.mem_ctrls.bytes_read::total            1567936                       # Number of bytes read from this memory
system.mem_ctrls.bytes_inst_read::switch_cpus0.inst       179968                       # Number of instructions bytes read from this memory
system.mem_ctrls.bytes_inst_read::switch_cpus1.inst        74176                       # Number of instructions bytes read from this memory
system.mem_ctrls.bytes_inst_read::switch_cpus2.inst         3584                       # Number of instructions bytes read from this memory
system.mem_ctrls.bytes_inst_read::switch_cpus3.inst       239616                       # Number of instructions bytes read from this memory
system.mem_ctrls.bytes_inst_read::total        497344                       # Number of instructions bytes read from this memory
system.mem_ctrls.bytes_written::writebacks       660736                       # Number of bytes written to this memory
system.mem_ctrls.bytes_written::total          660736                       # Number of bytes written to this memory
system.mem_ctrls.num_reads::switch_cpus0.inst         2812                       # Number of read requests responded to by this memory
system.mem_ctrls.num_reads::switch_cpus0.data         3835                       # Number of read requests responded to by this memory
system.mem_ctrls.num_reads::switch_cpus1.inst         1159                       # Number of read requests responded to by this memory
system.mem_ctrls.num_reads::switch_cpus1.data         2020                       # Number of read requests responded to by this memory
system.mem_ctrls.num_reads::switch_cpus2.inst           56                       # Number of read requests responded to by this memory
system.mem_ctrls.num_reads::switch_cpus2.data           38                       # Number of read requests responded to by this memory
system.mem_ctrls.num_reads::switch_cpus3.inst         3744                       # Number of read requests responded to by this memory
system.mem_ctrls.num_reads::switch_cpus3.data        10835                       # Number of read requests responded to by this memory
system.mem_ctrls.num_reads::total               24499                       # Number of read requests responded to by this memory
system.mem_ctrls.num_writes::writebacks         10324                       # Number of write requests responded to by this memory
system.mem_ctrls.num_writes::total              10324                       # Number of write requests responded to by this memory
system.mem_ctrls.bw_read::switch_cpus0.inst    151526225                       # Total read bandwidth from this memory (bytes/s)
system.mem_ctrls.bw_read::switch_cpus0.data    206651163                       # Total read bandwidth from this memory (bytes/s)
system.mem_ctrls.bw_read::switch_cpus1.inst     62453376                       # Total read bandwidth from this memory (bytes/s)
system.mem_ctrls.bw_read::switch_cpus1.data    108848853                       # Total read bandwidth from this memory (bytes/s)
system.mem_ctrls.bw_read::switch_cpus2.inst      3017592                       # Total read bandwidth from this memory (bytes/s)
system.mem_ctrls.bw_read::switch_cpus2.data      2047652                       # Total read bandwidth from this memory (bytes/s)
system.mem_ctrls.bw_read::switch_cpus3.inst    201747576                       # Total read bandwidth from this memory (bytes/s)
system.mem_ctrls.bw_read::switch_cpus3.data    583850158                       # Total read bandwidth from this memory (bytes/s)
system.mem_ctrls.bw_read::total            1320142595                       # Total read bandwidth from this memory (bytes/s)
system.mem_ctrls.bw_inst_read::switch_cpus0.inst    151526225                       # Instruction read bandwidth from this memory (bytes/s)
system.mem_ctrls.bw_inst_read::switch_cpus1.inst     62453376                       # Instruction read bandwidth from this memory (bytes/s)
system.mem_ctrls.bw_inst_read::switch_cpus2.inst      3017592                       # Instruction read bandwidth from this memory (bytes/s)
system.mem_ctrls.bw_inst_read::switch_cpus3.inst    201747576                       # Instruction read bandwidth from this memory (bytes/s)
system.mem_ctrls.bw_inst_read::total        418744769                       # Instruction read bandwidth from this memory (bytes/s)
system.mem_ctrls.bw_write::writebacks       556314631                       # Write bandwidth from this memory (bytes/s)
system.mem_ctrls.bw_write::total            556314631                       # Write bandwidth from this memory (bytes/s)
system.mem_ctrls.bw_total::writebacks       556314631                       # Total bandwidth to/from this memory (bytes/s)
system.mem_ctrls.bw_total::switch_cpus0.inst    151526225                       # Total bandwidth to/from this memory (bytes/s)
system.mem_ctrls.bw_total::switch_cpus0.data    206651163                       # Total bandwidth to/from this memory (bytes/s)
system.mem_ctrls.bw_total::switch_cpus1.inst     62453376                       # Total bandwidth to/from this memory (bytes/s)
system.mem_ctrls.bw_total::switch_cpus1.data    108848853                       # Total bandwidth to/from this memory (bytes/s)
system.mem_ctrls.bw_total::switch_cpus2.inst      3017592                       # Total bandwidth to/from this memory (bytes/s)
system.mem_ctrls.bw_total::switch_cpus2.data      2047652                       # Total bandwidth to/from this memory (bytes/s)
system.mem_ctrls.bw_total::switch_cpus3.inst    201747576                       # Total bandwidth to/from this memory (bytes/s)
system.mem_ctrls.bw_total::switch_cpus3.data    583850158                       # Total bandwidth to/from this memory (bytes/s)
system.mem_ctrls.bw_total::total           1876457226                       # Total bandwidth to/from this memory (bytes/s)
system.mem_ctrls.readReqs                       24499                       # Number of read requests accepted
system.mem_ctrls.writeReqs                      10324                       # Number of write requests accepted
system.mem_ctrls.readBursts                     24499                       # Number of DRAM read bursts, including those serviced by the write queue
system.mem_ctrls.writeBursts                    10324                       # Number of DRAM write bursts, including those merged in the write queue
system.mem_ctrls.bytesReadDRAM                1563968                       # Total number of bytes read from DRAM
system.mem_ctrls.bytesReadWrQ                    3968                       # Total number of bytes read from write queue
system.mem_ctrls.bytesWritten                  658688                       # Total number of bytes written to DRAM
system.mem_ctrls.bytesReadSys                 1567936                       # Total read bytes from the system interface side
system.mem_ctrls.bytesWrittenSys               660736                       # Total written bytes from the system interface side
system.mem_ctrls.servicedByWrQ                     62                       # Number of DRAM read bursts serviced by the write queue
system.mem_ctrls.mergedWrBursts                     0                       # Number of DRAM write bursts merged with an existing one
system.mem_ctrls.neitherReadNorWriteReqs           58                       # Number of requests that are neither read nor write
system.mem_ctrls.perBankRdBursts::0              1141                       # Per bank write bursts
system.mem_ctrls.perBankRdBursts::1              1212                       # Per bank write bursts
system.mem_ctrls.perBankRdBursts::2              1536                       # Per bank write bursts
system.mem_ctrls.perBankRdBursts::3               969                       # Per bank write bursts
system.mem_ctrls.perBankRdBursts::4              1302                       # Per bank write bursts
system.mem_ctrls.perBankRdBursts::5              1973                       # Per bank write bursts
system.mem_ctrls.perBankRdBursts::6              1406                       # Per bank write bursts
system.mem_ctrls.perBankRdBursts::7              1210                       # Per bank write bursts
system.mem_ctrls.perBankRdBursts::8              1659                       # Per bank write bursts
system.mem_ctrls.perBankRdBursts::9              1923                       # Per bank write bursts
system.mem_ctrls.perBankRdBursts::10             1395                       # Per bank write bursts
system.mem_ctrls.perBankRdBursts::11             1291                       # Per bank write bursts
system.mem_ctrls.perBankRdBursts::12             1738                       # Per bank write bursts
system.mem_ctrls.perBankRdBursts::13             2461                       # Per bank write bursts
system.mem_ctrls.perBankRdBursts::14             1691                       # Per bank write bursts
system.mem_ctrls.perBankRdBursts::15             1530                       # Per bank write bursts
system.mem_ctrls.perBankWrBursts::0               420                       # Per bank write bursts
system.mem_ctrls.perBankWrBursts::1               633                       # Per bank write bursts
system.mem_ctrls.perBankWrBursts::2               392                       # Per bank write bursts
system.mem_ctrls.perBankWrBursts::3               204                       # Per bank write bursts
system.mem_ctrls.perBankWrBursts::4               332                       # Per bank write bursts
system.mem_ctrls.perBankWrBursts::5               793                       # Per bank write bursts
system.mem_ctrls.perBankWrBursts::6               393                       # Per bank write bursts
system.mem_ctrls.perBankWrBursts::7               290                       # Per bank write bursts
system.mem_ctrls.perBankWrBursts::8               409                       # Per bank write bursts
system.mem_ctrls.perBankWrBursts::9               590                       # Per bank write bursts
system.mem_ctrls.perBankWrBursts::10              702                       # Per bank write bursts
system.mem_ctrls.perBankWrBursts::11              758                       # Per bank write bursts
system.mem_ctrls.perBankWrBursts::12             1142                       # Per bank write bursts
system.mem_ctrls.perBankWrBursts::13             1229                       # Per bank write bursts
system.mem_ctrls.perBankWrBursts::14             1047                       # Per bank write bursts
system.mem_ctrls.perBankWrBursts::15              958                       # Per bank write bursts
system.mem_ctrls.numRdRetry                         0                       # Number of times read queue was full causing retry
system.mem_ctrls.numWrRetry                         0                       # Number of times write queue was full causing retry
system.mem_ctrls.totGap                    1187614500                       # Total gap between requests
system.mem_ctrls.readPktSize::0                     0                       # Read request sizes (log2)
system.mem_ctrls.readPktSize::1                     0                       # Read request sizes (log2)
system.mem_ctrls.readPktSize::2                     0                       # Read request sizes (log2)
system.mem_ctrls.readPktSize::3                     0                       # Read request sizes (log2)
system.mem_ctrls.readPktSize::4                     0                       # Read request sizes (log2)
system.mem_ctrls.readPktSize::5                     0                       # Read request sizes (log2)
system.mem_ctrls.readPktSize::6                 24499                       # Read request sizes (log2)
system.mem_ctrls.writePktSize::0                    0                       # Write request sizes (log2)
system.mem_ctrls.writePktSize::1                    0                       # Write request sizes (log2)
system.mem_ctrls.writePktSize::2                    0                       # Write request sizes (log2)
system.mem_ctrls.writePktSize::3                    0                       # Write request sizes (log2)
system.mem_ctrls.writePktSize::4                    0                       # Write request sizes (log2)
system.mem_ctrls.writePktSize::5                    0                       # Write request sizes (log2)
system.mem_ctrls.writePktSize::6                10324                       # Write request sizes (log2)
system.mem_ctrls.rdQLenPdf::0                   11364                       # What read queue length does an incoming req see
system.mem_ctrls.rdQLenPdf::1                    6743                       # What read queue length does an incoming req see
system.mem_ctrls.rdQLenPdf::2                    3711                       # What read queue length does an incoming req see
system.mem_ctrls.rdQLenPdf::3                    2139                       # What read queue length does an incoming req see
system.mem_ctrls.rdQLenPdf::4                     295                       # What read queue length does an incoming req see
system.mem_ctrls.rdQLenPdf::5                     108                       # What read queue length does an incoming req see
system.mem_ctrls.rdQLenPdf::6                      47                       # What read queue length does an incoming req see
system.mem_ctrls.rdQLenPdf::7                      22                       # What read queue length does an incoming req see
system.mem_ctrls.rdQLenPdf::8                       3                       # What read queue length does an incoming req see
system.mem_ctrls.rdQLenPdf::9                       1                       # What read queue length does an incoming req see
system.mem_ctrls.rdQLenPdf::10                      1                       # What read queue length does an incoming req see
system.mem_ctrls.rdQLenPdf::11                      1                       # What read queue length does an incoming req see
system.mem_ctrls.rdQLenPdf::12                      1                       # What read queue length does an incoming req see
system.mem_ctrls.rdQLenPdf::13                      1                       # What read queue length does an incoming req see
system.mem_ctrls.rdQLenPdf::14                      0                       # What read queue length does an incoming req see
system.mem_ctrls.rdQLenPdf::15                      0                       # What read queue length does an incoming req see
system.mem_ctrls.rdQLenPdf::16                      0                       # What read queue length does an incoming req see
system.mem_ctrls.rdQLenPdf::17                      0                       # What read queue length does an incoming req see
system.mem_ctrls.rdQLenPdf::18                      0                       # What read queue length does an incoming req see
system.mem_ctrls.rdQLenPdf::19                      0                       # What read queue length does an incoming req see
system.mem_ctrls.rdQLenPdf::20                      0                       # What read queue length does an incoming req see
system.mem_ctrls.rdQLenPdf::21                      0                       # What read queue length does an incoming req see
system.mem_ctrls.rdQLenPdf::22                      0                       # What read queue length does an incoming req see
system.mem_ctrls.rdQLenPdf::23                      0                       # What read queue length does an incoming req see
system.mem_ctrls.rdQLenPdf::24                      0                       # What read queue length does an incoming req see
system.mem_ctrls.rdQLenPdf::25                      0                       # What read queue length does an incoming req see
system.mem_ctrls.rdQLenPdf::26                      0                       # What read queue length does an incoming req see
system.mem_ctrls.rdQLenPdf::27                      0                       # What read queue length does an incoming req see
system.mem_ctrls.rdQLenPdf::28                      0                       # What read queue length does an incoming req see
system.mem_ctrls.rdQLenPdf::29                      0                       # What read queue length does an incoming req see
system.mem_ctrls.rdQLenPdf::30                      0                       # What read queue length does an incoming req see
system.mem_ctrls.rdQLenPdf::31                      0                       # What read queue length does an incoming req see
system.mem_ctrls.wrQLenPdf::0                       1                       # What write queue length does an incoming req see
system.mem_ctrls.wrQLenPdf::1                       1                       # What write queue length does an incoming req see
system.mem_ctrls.wrQLenPdf::2                       1                       # What write queue length does an incoming req see
system.mem_ctrls.wrQLenPdf::3                       1                       # What write queue length does an incoming req see
system.mem_ctrls.wrQLenPdf::4                       1                       # What write queue length does an incoming req see
system.mem_ctrls.wrQLenPdf::5                       1                       # What write queue length does an incoming req see
system.mem_ctrls.wrQLenPdf::6                       1                       # What write queue length does an incoming req see
system.mem_ctrls.wrQLenPdf::7                       1                       # What write queue length does an incoming req see
system.mem_ctrls.wrQLenPdf::8                       1                       # What write queue length does an incoming req see
system.mem_ctrls.wrQLenPdf::9                       1                       # What write queue length does an incoming req see
system.mem_ctrls.wrQLenPdf::10                      1                       # What write queue length does an incoming req see
system.mem_ctrls.wrQLenPdf::11                      1                       # What write queue length does an incoming req see
system.mem_ctrls.wrQLenPdf::12                      1                       # What write queue length does an incoming req see
system.mem_ctrls.wrQLenPdf::13                      1                       # What write queue length does an incoming req see
system.mem_ctrls.wrQLenPdf::14                      1                       # What write queue length does an incoming req see
system.mem_ctrls.wrQLenPdf::15                     28                       # What write queue length does an incoming req see
system.mem_ctrls.wrQLenPdf::16                     36                       # What write queue length does an incoming req see
system.mem_ctrls.wrQLenPdf::17                    293                       # What write queue length does an incoming req see
system.mem_ctrls.wrQLenPdf::18                    464                       # What write queue length does an incoming req see
system.mem_ctrls.wrQLenPdf::19                    567                       # What write queue length does an incoming req see
system.mem_ctrls.wrQLenPdf::20                    645                       # What write queue length does an incoming req see
system.mem_ctrls.wrQLenPdf::21                    661                       # What write queue length does an incoming req see
system.mem_ctrls.wrQLenPdf::22                    669                       # What write queue length does an incoming req see
system.mem_ctrls.wrQLenPdf::23                    674                       # What write queue length does an incoming req see
system.mem_ctrls.wrQLenPdf::24                    679                       # What write queue length does an incoming req see
system.mem_ctrls.wrQLenPdf::25                    676                       # What write queue length does an incoming req see
system.mem_ctrls.wrQLenPdf::26                    765                       # What write queue length does an incoming req see
system.mem_ctrls.wrQLenPdf::27                    693                       # What write queue length does an incoming req see
system.mem_ctrls.wrQLenPdf::28                    699                       # What write queue length does an incoming req see
system.mem_ctrls.wrQLenPdf::29                    741                       # What write queue length does an incoming req see
system.mem_ctrls.wrQLenPdf::30                    682                       # What write queue length does an incoming req see
system.mem_ctrls.wrQLenPdf::31                    682                       # What write queue length does an incoming req see
system.mem_ctrls.wrQLenPdf::32                    650                       # What write queue length does an incoming req see
system.mem_ctrls.wrQLenPdf::33                      4                       # What write queue length does an incoming req see
system.mem_ctrls.wrQLenPdf::34                      1                       # What write queue length does an incoming req see
system.mem_ctrls.wrQLenPdf::35                      0                       # What write queue length does an incoming req see
system.mem_ctrls.wrQLenPdf::36                      0                       # What write queue length does an incoming req see
system.mem_ctrls.wrQLenPdf::37                      0                       # What write queue length does an incoming req see
system.mem_ctrls.wrQLenPdf::38                      0                       # What write queue length does an incoming req see
system.mem_ctrls.wrQLenPdf::39                      0                       # What write queue length does an incoming req see
system.mem_ctrls.wrQLenPdf::40                      0                       # What write queue length does an incoming req see
system.mem_ctrls.wrQLenPdf::41                      0                       # What write queue length does an incoming req see
system.mem_ctrls.wrQLenPdf::42                      0                       # What write queue length does an incoming req see
system.mem_ctrls.wrQLenPdf::43                      0                       # What write queue length does an incoming req see
system.mem_ctrls.wrQLenPdf::44                      0                       # What write queue length does an incoming req see
system.mem_ctrls.wrQLenPdf::45                      0                       # What write queue length does an incoming req see
system.mem_ctrls.wrQLenPdf::46                      0                       # What write queue length does an incoming req see
system.mem_ctrls.wrQLenPdf::47                      0                       # What write queue length does an incoming req see
system.mem_ctrls.wrQLenPdf::48                      0                       # What write queue length does an incoming req see
system.mem_ctrls.wrQLenPdf::49                      0                       # What write queue length does an incoming req see
system.mem_ctrls.wrQLenPdf::50                      0                       # What write queue length does an incoming req see
system.mem_ctrls.wrQLenPdf::51                      0                       # What write queue length does an incoming req see
system.mem_ctrls.wrQLenPdf::52                      0                       # What write queue length does an incoming req see
system.mem_ctrls.wrQLenPdf::53                      0                       # What write queue length does an incoming req see
system.mem_ctrls.wrQLenPdf::54                      0                       # What write queue length does an incoming req see
system.mem_ctrls.wrQLenPdf::55                      0                       # What write queue length does an incoming req see
system.mem_ctrls.wrQLenPdf::56                      0                       # What write queue length does an incoming req see
system.mem_ctrls.wrQLenPdf::57                      0                       # What write queue length does an incoming req see
system.mem_ctrls.wrQLenPdf::58                      0                       # What write queue length does an incoming req see
system.mem_ctrls.wrQLenPdf::59                      0                       # What write queue length does an incoming req see
system.mem_ctrls.wrQLenPdf::60                      0                       # What write queue length does an incoming req see
system.mem_ctrls.wrQLenPdf::61                      0                       # What write queue length does an incoming req see
system.mem_ctrls.wrQLenPdf::62                      0                       # What write queue length does an incoming req see
system.mem_ctrls.wrQLenPdf::63                      0                       # What write queue length does an incoming req see
system.mem_ctrls.bytesPerActivate::samples         9223                       # Bytes accessed per row activation
system.mem_ctrls.bytesPerActivate::mean    240.692183                       # Bytes accessed per row activation
system.mem_ctrls.bytesPerActivate::gmean   141.008599                       # Bytes accessed per row activation
system.mem_ctrls.bytesPerActivate::stdev   293.350229                       # Bytes accessed per row activation
system.mem_ctrls.bytesPerActivate::0-127         4494     48.73%     48.73% # Bytes accessed per row activation
system.mem_ctrls.bytesPerActivate::128-255         2186     23.70%     72.43% # Bytes accessed per row activation
system.mem_ctrls.bytesPerActivate::256-383          737      7.99%     80.42% # Bytes accessed per row activation
system.mem_ctrls.bytesPerActivate::384-511          377      4.09%     84.51% # Bytes accessed per row activation
system.mem_ctrls.bytesPerActivate::512-639          257      2.79%     87.29% # Bytes accessed per row activation
system.mem_ctrls.bytesPerActivate::640-767          152      1.65%     88.94% # Bytes accessed per row activation
system.mem_ctrls.bytesPerActivate::768-895          135      1.46%     90.40% # Bytes accessed per row activation
system.mem_ctrls.bytesPerActivate::896-1023          120      1.30%     91.71% # Bytes accessed per row activation
system.mem_ctrls.bytesPerActivate::1024-1151          765      8.29%    100.00% # Bytes accessed per row activation
system.mem_ctrls.bytesPerActivate::total         9223                       # Bytes accessed per row activation
system.mem_ctrls.rdPerTurnAround::samples          638                       # Reads before turning the bus around for writes
system.mem_ctrls.rdPerTurnAround::mean      38.236677                       # Reads before turning the bus around for writes
system.mem_ctrls.rdPerTurnAround::gmean     31.485216                       # Reads before turning the bus around for writes
system.mem_ctrls.rdPerTurnAround::stdev     26.287126                       # Reads before turning the bus around for writes
system.mem_ctrls.rdPerTurnAround::8-15             37      5.80%      5.80% # Reads before turning the bus around for writes
system.mem_ctrls.rdPerTurnAround::16-23           202     31.66%     37.46% # Reads before turning the bus around for writes
system.mem_ctrls.rdPerTurnAround::24-31            96     15.05%     52.51% # Reads before turning the bus around for writes
system.mem_ctrls.rdPerTurnAround::32-39            66     10.34%     62.85% # Reads before turning the bus around for writes
system.mem_ctrls.rdPerTurnAround::40-47            68     10.66%     73.51% # Reads before turning the bus around for writes
system.mem_ctrls.rdPerTurnAround::48-55            38      5.96%     79.47% # Reads before turning the bus around for writes
system.mem_ctrls.rdPerTurnAround::56-63            37      5.80%     85.27% # Reads before turning the bus around for writes
system.mem_ctrls.rdPerTurnAround::64-71            30      4.70%     89.97% # Reads before turning the bus around for writes
system.mem_ctrls.rdPerTurnAround::72-79            13      2.04%     92.01% # Reads before turning the bus around for writes
system.mem_ctrls.rdPerTurnAround::80-87            14      2.19%     94.20% # Reads before turning the bus around for writes
system.mem_ctrls.rdPerTurnAround::88-95            12      1.88%     96.08% # Reads before turning the bus around for writes
system.mem_ctrls.rdPerTurnAround::96-103           12      1.88%     97.96% # Reads before turning the bus around for writes
system.mem_ctrls.rdPerTurnAround::104-111            2      0.31%     98.28% # Reads before turning the bus around for writes
system.mem_ctrls.rdPerTurnAround::112-119            2      0.31%     98.59% # Reads before turning the bus around for writes
system.mem_ctrls.rdPerTurnAround::120-127            3      0.47%     99.06% # Reads before turning the bus around for writes
system.mem_ctrls.rdPerTurnAround::128-135            1      0.16%     99.22% # Reads before turning the bus around for writes
system.mem_ctrls.rdPerTurnAround::136-143            1      0.16%     99.37% # Reads before turning the bus around for writes
system.mem_ctrls.rdPerTurnAround::144-151            1      0.16%     99.53% # Reads before turning the bus around for writes
system.mem_ctrls.rdPerTurnAround::152-159            1      0.16%     99.69% # Reads before turning the bus around for writes
system.mem_ctrls.rdPerTurnAround::184-191            1      0.16%     99.84% # Reads before turning the bus around for writes
system.mem_ctrls.rdPerTurnAround::200-207            1      0.16%    100.00% # Reads before turning the bus around for writes
system.mem_ctrls.rdPerTurnAround::total           638                       # Reads before turning the bus around for writes
system.mem_ctrls.wrPerTurnAround::samples          638                       # Writes before turning the bus around for reads
system.mem_ctrls.wrPerTurnAround::mean      16.131661                       # Writes before turning the bus around for reads
system.mem_ctrls.wrPerTurnAround::gmean     16.123505                       # Writes before turning the bus around for reads
system.mem_ctrls.wrPerTurnAround::stdev      0.538823                       # Writes before turning the bus around for reads
system.mem_ctrls.wrPerTurnAround::16              595     93.26%     93.26% # Writes before turning the bus around for reads
system.mem_ctrls.wrPerTurnAround::17               12      1.88%     95.14% # Writes before turning the bus around for reads
system.mem_ctrls.wrPerTurnAround::18               25      3.92%     99.06% # Writes before turning the bus around for reads
system.mem_ctrls.wrPerTurnAround::19                3      0.47%     99.53% # Writes before turning the bus around for reads
system.mem_ctrls.wrPerTurnAround::20                2      0.31%     99.84% # Writes before turning the bus around for reads
system.mem_ctrls.wrPerTurnAround::21                1      0.16%    100.00% # Writes before turning the bus around for reads
system.mem_ctrls.wrPerTurnAround::total           638                       # Writes before turning the bus around for reads
system.mem_ctrls.totQLat                    504051500                       # Total ticks spent queuing
system.mem_ctrls.totMemAccLat               962245250                       # Total ticks spent from burst creation until serviced by the DRAM
system.mem_ctrls.totBusLat                  122185000                       # Total ticks spent in databus transfers
system.mem_ctrls.avgQLat                     20626.57                       # Average queueing delay per DRAM burst
system.mem_ctrls.avgBusLat                    5000.00                       # Average bus latency per DRAM burst
system.mem_ctrls.avgMemAccLat                39376.57                       # Average memory access latency per DRAM burst
system.mem_ctrls.avgRdBW                      1316.80                       # Average DRAM read bandwidth in MiByte/s
system.mem_ctrls.avgWrBW                       554.59                       # Average achieved write bandwidth in MiByte/s
system.mem_ctrls.avgRdBWSys                   1320.14                       # Average system read bandwidth in MiByte/s
system.mem_ctrls.avgWrBWSys                    556.31                       # Average system write bandwidth in MiByte/s
system.mem_ctrls.peakBW                      12800.00                       # Theoretical peak bandwidth in MiByte/s
system.mem_ctrls.busUtil                        14.62                       # Data bus utilization in percentage
system.mem_ctrls.busUtilRead                    10.29                       # Data bus utilization in percentage for reads
system.mem_ctrls.busUtilWrite                    4.33                       # Data bus utilization in percentage for writes
system.mem_ctrls.avgRdQLen                       1.93                       # Average read queue length when enqueuing
system.mem_ctrls.avgWrQLen                      25.85                       # Average write queue length when enqueuing
system.mem_ctrls.readRowHits                    18181                       # Number of row buffer hits during reads
system.mem_ctrls.writeRowHits                    7311                       # Number of row buffer hits during writes
system.mem_ctrls.readRowHitRate                 74.40                       # Row buffer hit rate for reads
system.mem_ctrls.writeRowHitRate                70.82                       # Row buffer hit rate for writes
system.mem_ctrls.avgGap                      34104.31                       # Average gap between requests
system.mem_ctrls.pageHitRate                    73.34                       # Row buffer hit rate, read and write combined
system.mem_ctrls_0.actEnergy                 27714960                       # Energy for activate commands per rank (pJ)
system.mem_ctrls_0.preEnergy                 15122250                       # Energy for precharge commands per rank (pJ)
system.mem_ctrls_0.readEnergy                83616000                       # Energy for read commands per rank (pJ)
system.mem_ctrls_0.writeEnergy               22297680                       # Energy for write commands per rank (pJ)
system.mem_ctrls_0.refreshEnergy             77301120                       # Energy for refresh commands per rank (pJ)
system.mem_ctrls_0.actBackEnergy            784894275                       # Energy for active background per rank (pJ)
system.mem_ctrls_0.preBackEnergy             21758250                       # Energy for precharge background per rank (pJ)
system.mem_ctrls_0.totalEnergy             1032704535                       # Total energy per rank (pJ)
system.mem_ctrls_0.averagePower            872.386135                       # Core power per rank (mW)
system.mem_ctrls_0.memoryStateTime::IDLE     31110750                       # Time in different power states
system.mem_ctrls_0.memoryStateTime::REF      39520000                       # Time in different power states
system.mem_ctrls_0.memoryStateTime::PRE_PDN            0                       # Time in different power states
system.mem_ctrls_0.memoryStateTime::ACT    1113241750                       # Time in different power states
system.mem_ctrls_0.memoryStateTime::ACT_PDN            0                       # Time in different power states
system.mem_ctrls_1.actEnergy                 41874840                       # Energy for activate commands per rank (pJ)
system.mem_ctrls_1.preEnergy                 22848375                       # Energy for precharge commands per rank (pJ)
system.mem_ctrls_1.readEnergy               106493400                       # Energy for read commands per rank (pJ)
system.mem_ctrls_1.writeEnergy               44290800                       # Energy for write commands per rank (pJ)
system.mem_ctrls_1.refreshEnergy             77301120                       # Energy for refresh commands per rank (pJ)
system.mem_ctrls_1.actBackEnergy            793605870                       # Energy for active background per rank (pJ)
system.mem_ctrls_1.preBackEnergy             14116500                       # Energy for precharge background per rank (pJ)
system.mem_ctrls_1.totalEnergy             1100530905                       # Total energy per rank (pJ)
system.mem_ctrls_1.averagePower            929.683051                       # Core power per rank (mW)
system.mem_ctrls_1.memoryStateTime::IDLE     18656250                       # Time in different power states
system.mem_ctrls_1.memoryStateTime::REF      39520000                       # Time in different power states
system.mem_ctrls_1.memoryStateTime::PRE_PDN            0                       # Time in different power states
system.mem_ctrls_1.memoryStateTime::ACT    1125607500                       # Time in different power states
system.mem_ctrls_1.memoryStateTime::ACT_PDN            0                       # Time in different power states
system.cpu_voltage_domain.voltage                   1                       # Voltage in Volts
system.cpu_clk_domain.clock                       500                       # Clock period in ticks
system.cpu0.dtb.fetch_hits                          0                       # ITB hits
system.cpu0.dtb.fetch_misses                        0                       # ITB misses
system.cpu0.dtb.fetch_acv                           0                       # ITB acv
system.cpu0.dtb.fetch_accesses                      0                       # ITB accesses
system.cpu0.dtb.read_hits                           0                       # DTB read hits
system.cpu0.dtb.read_misses                         0                       # DTB read misses
system.cpu0.dtb.read_acv                            0                       # DTB read access violations
system.cpu0.dtb.read_accesses                       0                       # DTB read accesses
system.cpu0.dtb.write_hits                          0                       # DTB write hits
system.cpu0.dtb.write_misses                        0                       # DTB write misses
system.cpu0.dtb.write_acv                           0                       # DTB write access violations
system.cpu0.dtb.write_accesses                      0                       # DTB write accesses
system.cpu0.dtb.data_hits                           0                       # DTB hits
system.cpu0.dtb.data_misses                         0                       # DTB misses
system.cpu0.dtb.data_acv                            0                       # DTB access violations
system.cpu0.dtb.data_accesses                       0                       # DTB accesses
system.cpu0.itb.fetch_hits                          0                       # ITB hits
system.cpu0.itb.fetch_misses                        0                       # ITB misses
system.cpu0.itb.fetch_acv                           0                       # ITB acv
system.cpu0.itb.fetch_accesses                      0                       # ITB accesses
system.cpu0.itb.read_hits                           0                       # DTB read hits
system.cpu0.itb.read_misses                         0                       # DTB read misses
system.cpu0.itb.read_acv                            0                       # DTB read access violations
system.cpu0.itb.read_accesses                       0                       # DTB read accesses
system.cpu0.itb.write_hits                          0                       # DTB write hits
system.cpu0.itb.write_misses                        0                       # DTB write misses
system.cpu0.itb.write_acv                           0                       # DTB write access violations
system.cpu0.itb.write_accesses                      0                       # DTB write accesses
system.cpu0.itb.data_hits                           0                       # DTB hits
system.cpu0.itb.data_misses                         0                       # DTB misses
system.cpu0.itb.data_acv                            0                       # DTB access violations
system.cpu0.itb.data_accesses                       0                       # DTB accesses
system.cpu0.numCycles                               0                       # number of cpu cycles simulated
system.cpu0.numWorkItemsStarted                     0                       # number of work items this cpu started
system.cpu0.numWorkItemsCompleted                   0                       # number of work items this cpu completed
system.cpu0.committedInsts                          0                       # Number of instructions committed
system.cpu0.committedOps                            0                       # Number of ops (including micro ops) committed
system.cpu0.num_int_alu_accesses                    0                       # Number of integer alu accesses
system.cpu0.num_fp_alu_accesses                     0                       # Number of float alu accesses
system.cpu0.num_func_calls                          0                       # number of times a function call or return occured
system.cpu0.num_conditional_control_insts            0                       # number of instructions that are conditional controls
system.cpu0.num_int_insts                           0                       # number of integer instructions
system.cpu0.num_fp_insts                            0                       # number of float instructions
system.cpu0.num_int_register_reads                  0                       # number of times the integer registers were read
system.cpu0.num_int_register_writes                 0                       # number of times the integer registers were written
system.cpu0.num_fp_register_reads                   0                       # number of times the floating registers were read
system.cpu0.num_fp_register_writes                  0                       # number of times the floating registers were written
system.cpu0.num_mem_refs                            0                       # number of memory refs
system.cpu0.num_load_insts                          0                       # Number of load instructions
system.cpu0.num_store_insts                         0                       # Number of store instructions
system.cpu0.num_idle_cycles                         0                       # Number of idle cycles
system.cpu0.num_busy_cycles                         0                       # Number of busy cycles
system.cpu0.not_idle_fraction                       1                       # Percentage of non-idle cycles
system.cpu0.idle_fraction                           0                       # Percentage of idle cycles
system.cpu0.op_class::No_OpClass                    0                       # Class of executed instruction
system.cpu0.op_class::IntAlu                        0                       # Class of executed instruction
system.cpu0.op_class::IntMult                       0                       # Class of executed instruction
system.cpu0.op_class::IntDiv                        0                       # Class of executed instruction
system.cpu0.op_class::FloatAdd                      0                       # Class of executed instruction
system.cpu0.op_class::FloatCmp                      0                       # Class of executed instruction
system.cpu0.op_class::FloatCvt                      0                       # Class of executed instruction
system.cpu0.op_class::FloatMult                     0                       # Class of executed instruction
system.cpu0.op_class::FloatDiv                      0                       # Class of executed instruction
system.cpu0.op_class::FloatSqrt                     0                       # Class of executed instruction
system.cpu0.op_class::SimdAdd                       0                       # Class of executed instruction
system.cpu0.op_class::SimdAddAcc                    0                       # Class of executed instruction
system.cpu0.op_class::SimdAlu                       0                       # Class of executed instruction
system.cpu0.op_class::SimdCmp                       0                       # Class of executed instruction
system.cpu0.op_class::SimdCvt                       0                       # Class of executed instruction
system.cpu0.op_class::SimdMisc                      0                       # Class of executed instruction
system.cpu0.op_class::SimdMult                      0                       # Class of executed instruction
system.cpu0.op_class::SimdMultAcc                   0                       # Class of executed instruction
system.cpu0.op_class::SimdShift                     0                       # Class of executed instruction
system.cpu0.op_class::SimdShiftAcc                  0                       # Class of executed instruction
system.cpu0.op_class::SimdSqrt                      0                       # Class of executed instruction
system.cpu0.op_class::SimdFloatAdd                  0                       # Class of executed instruction
system.cpu0.op_class::SimdFloatAlu                  0                       # Class of executed instruction
system.cpu0.op_class::SimdFloatCmp                  0                       # Class of executed instruction
system.cpu0.op_class::SimdFloatCvt                  0                       # Class of executed instruction
system.cpu0.op_class::SimdFloatDiv                  0                       # Class of executed instruction
system.cpu0.op_class::SimdFloatMisc                 0                       # Class of executed instruction
system.cpu0.op_class::SimdFloatMult                 0                       # Class of executed instruction
system.cpu0.op_class::SimdFloatMultAcc              0                       # Class of executed instruction
system.cpu0.op_class::SimdFloatSqrt                 0                       # Class of executed instruction
system.cpu0.op_class::MemRead                       0                       # Class of executed instruction
system.cpu0.op_class::MemWrite                      0                       # Class of executed instruction
system.cpu0.op_class::IprAccess                     0                       # Class of executed instruction
system.cpu0.op_class::InstPrefetch                  0                       # Class of executed instruction
system.cpu0.op_class::total                         0                       # Class of executed instruction
system.cpu0.kern.inst.arm                           0                       # number of arm instructions executed
system.cpu0.kern.inst.quiesce                       3                       # number of quiesce instructions executed
system.cpu0.kern.inst.hwrei                       597                       # number of hwrei instructions executed
system.cpu0.kern.ipl_count::0                     168     46.28%     46.28% # number of times we switched to this ipl
system.cpu0.kern.ipl_count::22                      1      0.28%     46.56% # number of times we switched to this ipl
system.cpu0.kern.ipl_count::30                      1      0.28%     46.83% # number of times we switched to this ipl
system.cpu0.kern.ipl_count::31                    193     53.17%    100.00% # number of times we switched to this ipl
system.cpu0.kern.ipl_count::total                 363                       # number of times we switched to this ipl
system.cpu0.kern.ipl_good::0                      168     49.85%     49.85% # number of times we switched to this ipl from a different ipl
system.cpu0.kern.ipl_good::22                       1      0.30%     50.15% # number of times we switched to this ipl from a different ipl
system.cpu0.kern.ipl_good::30                       1      0.30%     50.45% # number of times we switched to this ipl from a different ipl
system.cpu0.kern.ipl_good::31                     167     49.55%    100.00% # number of times we switched to this ipl from a different ipl
system.cpu0.kern.ipl_good::total                  337                       # number of times we switched to this ipl from a different ipl
system.cpu0.kern.ipl_ticks::0               491203000     88.16%     88.16% # number of cycles we spent at this ipl
system.cpu0.kern.ipl_ticks::22                1013500      0.18%     88.34% # number of cycles we spent at this ipl
system.cpu0.kern.ipl_ticks::30                1596000      0.29%     88.62% # number of cycles we spent at this ipl
system.cpu0.kern.ipl_ticks::31               63387000     11.38%    100.00% # number of cycles we spent at this ipl
system.cpu0.kern.ipl_ticks::total           557199500                       # number of cycles we spent at this ipl
system.cpu0.kern.ipl_used::0                        1                       # fraction of swpipl calls that actually changed the ipl
system.cpu0.kern.ipl_used::22                       1                       # fraction of swpipl calls that actually changed the ipl
system.cpu0.kern.ipl_used::30                       1                       # fraction of swpipl calls that actually changed the ipl
system.cpu0.kern.ipl_used::31                0.865285                       # fraction of swpipl calls that actually changed the ipl
system.cpu0.kern.ipl_used::total             0.928375                       # fraction of swpipl calls that actually changed the ipl
system.cpu0.kern.syscall::2                         1     33.33%     33.33% # number of syscalls executed
system.cpu0.kern.syscall::3                         1     33.33%     66.67% # number of syscalls executed
system.cpu0.kern.syscall::19                        1     33.33%    100.00% # number of syscalls executed
system.cpu0.kern.syscall::total                     3                       # number of syscalls executed
system.cpu0.kern.callpal::wripir                    1      0.26%      0.26% # number of callpals executed
system.cpu0.kern.callpal::swpctx                   12      3.08%      3.34% # number of callpals executed
system.cpu0.kern.callpal::tbi                       2      0.51%      3.86% # number of callpals executed
system.cpu0.kern.callpal::swpipl                  342     87.92%     91.77% # number of callpals executed
system.cpu0.kern.callpal::rdps                      2      0.51%     92.29% # number of callpals executed
system.cpu0.kern.callpal::rdusp                     1      0.26%     92.54% # number of callpals executed
system.cpu0.kern.callpal::rti                      19      4.88%     97.43% # number of callpals executed
system.cpu0.kern.callpal::callsys                   9      2.31%     99.74% # number of callpals executed
system.cpu0.kern.callpal::imb                       1      0.26%    100.00% # number of callpals executed
system.cpu0.kern.callpal::total                   389                       # number of callpals executed
system.cpu0.kern.mode_switch::kernel               32                       # number of protection mode switches
system.cpu0.kern.mode_switch::user                 17                       # number of protection mode switches
system.cpu0.kern.mode_switch::idle                  0                       # number of protection mode switches
system.cpu0.kern.mode_good::kernel                 18                      
system.cpu0.kern.mode_good::user                   17                      
system.cpu0.kern.mode_good::idle                    0                      
system.cpu0.kern.mode_switch_good::kernel     0.562500                       # fraction of useful protection mode switches
system.cpu0.kern.mode_switch_good::user             1                       # fraction of useful protection mode switches
system.cpu0.kern.mode_switch_good::idle           nan                       # fraction of useful protection mode switches
system.cpu0.kern.mode_switch_good::total     0.714286                       # fraction of useful protection mode switches
system.cpu0.kern.mode_ticks::kernel         241510500     73.89%     73.89% # number of ticks spent at the given mode
system.cpu0.kern.mode_ticks::user            85320500     26.11%    100.00% # number of ticks spent at the given mode
system.cpu0.kern.mode_ticks::idle                   0      0.00%    100.00% # number of ticks spent at the given mode
system.cpu0.kern.swap_context                      12                       # number of times the context was actually changed
system.cpu0.dcache.tags.replacements             4849                       # number of replacements
system.cpu0.dcache.tags.tagsinuse          504.869403                       # Cycle average of tags in use
system.cpu0.dcache.tags.total_refs              55810                       # Total number of references to valid blocks.
system.cpu0.dcache.tags.sampled_refs             4849                       # Sample count of references to valid blocks.
system.cpu0.dcache.tags.avg_refs            11.509590                       # Average number of references to valid blocks.
system.cpu0.dcache.tags.warmup_cycle                0                       # Cycle when the warmup percentage was hit.
system.cpu0.dcache.tags.occ_blocks::cpu0.data    24.012872                       # Average occupied blocks per requestor
system.cpu0.dcache.tags.occ_blocks::switch_cpus0.data   480.856531                       # Average occupied blocks per requestor
system.cpu0.dcache.tags.occ_percent::cpu0.data     0.046900                       # Average percentage of cache occupancy
system.cpu0.dcache.tags.occ_percent::switch_cpus0.data     0.939173                       # Average percentage of cache occupancy
system.cpu0.dcache.tags.occ_percent::total     0.986073                       # Average percentage of cache occupancy
system.cpu0.dcache.tags.occ_task_id_blocks::1024          500                       # Occupied blocks per task id
system.cpu0.dcache.tags.age_task_id_blocks_1024::2          491                       # Occupied blocks per task id
system.cpu0.dcache.tags.age_task_id_blocks_1024::3            9                       # Occupied blocks per task id
system.cpu0.dcache.tags.occ_task_id_percent::1024     0.976562                       # Percentage of cache occupancy per task id
system.cpu0.dcache.tags.tag_accesses           288749                       # Number of tag accesses
system.cpu0.dcache.tags.data_accesses          288749                       # Number of data accesses
system.cpu0.dcache.ReadReq_hits::switch_cpus0.data        32857                       # number of ReadReq hits
system.cpu0.dcache.ReadReq_hits::total          32857                       # number of ReadReq hits
system.cpu0.dcache.WriteReq_hits::switch_cpus0.data        13615                       # number of WriteReq hits
system.cpu0.dcache.WriteReq_hits::total         13615                       # number of WriteReq hits
system.cpu0.dcache.LoadLockedReq_hits::switch_cpus0.data          533                       # number of LoadLockedReq hits
system.cpu0.dcache.LoadLockedReq_hits::total          533                       # number of LoadLockedReq hits
system.cpu0.dcache.StoreCondReq_hits::switch_cpus0.data          596                       # number of StoreCondReq hits
system.cpu0.dcache.StoreCondReq_hits::total          596                       # number of StoreCondReq hits
system.cpu0.dcache.demand_hits::switch_cpus0.data        46472                       # number of demand (read+write) hits
system.cpu0.dcache.demand_hits::total           46472                       # number of demand (read+write) hits
system.cpu0.dcache.overall_hits::switch_cpus0.data        46472                       # number of overall hits
system.cpu0.dcache.overall_hits::total          46472                       # number of overall hits
system.cpu0.dcache.ReadReq_misses::switch_cpus0.data         8715                       # number of ReadReq misses
system.cpu0.dcache.ReadReq_misses::total         8715                       # number of ReadReq misses
system.cpu0.dcache.WriteReq_misses::switch_cpus0.data        14468                       # number of WriteReq misses
system.cpu0.dcache.WriteReq_misses::total        14468                       # number of WriteReq misses
system.cpu0.dcache.LoadLockedReq_misses::switch_cpus0.data          157                       # number of LoadLockedReq misses
system.cpu0.dcache.LoadLockedReq_misses::total          157                       # number of LoadLockedReq misses
system.cpu0.dcache.StoreCondReq_misses::switch_cpus0.data           23                       # number of StoreCondReq misses
system.cpu0.dcache.StoreCondReq_misses::total           23                       # number of StoreCondReq misses
system.cpu0.dcache.demand_misses::switch_cpus0.data        23183                       # number of demand (read+write) misses
system.cpu0.dcache.demand_misses::total         23183                       # number of demand (read+write) misses
system.cpu0.dcache.overall_misses::switch_cpus0.data        23183                       # number of overall misses
system.cpu0.dcache.overall_misses::total        23183                       # number of overall misses
system.cpu0.dcache.ReadReq_miss_latency::switch_cpus0.data    533296982                       # number of ReadReq miss cycles
system.cpu0.dcache.ReadReq_miss_latency::total    533296982                       # number of ReadReq miss cycles
system.cpu0.dcache.WriteReq_miss_latency::switch_cpus0.data   1087800194                       # number of WriteReq miss cycles
system.cpu0.dcache.WriteReq_miss_latency::total   1087800194                       # number of WriteReq miss cycles
system.cpu0.dcache.LoadLockedReq_miss_latency::switch_cpus0.data     11195500                       # number of LoadLockedReq miss cycles
system.cpu0.dcache.LoadLockedReq_miss_latency::total     11195500                       # number of LoadLockedReq miss cycles
system.cpu0.dcache.StoreCondReq_miss_latency::switch_cpus0.data       222004                       # number of StoreCondReq miss cycles
system.cpu0.dcache.StoreCondReq_miss_latency::total       222004                       # number of StoreCondReq miss cycles
system.cpu0.dcache.demand_miss_latency::switch_cpus0.data   1621097176                       # number of demand (read+write) miss cycles
system.cpu0.dcache.demand_miss_latency::total   1621097176                       # number of demand (read+write) miss cycles
system.cpu0.dcache.overall_miss_latency::switch_cpus0.data   1621097176                       # number of overall miss cycles
system.cpu0.dcache.overall_miss_latency::total   1621097176                       # number of overall miss cycles
system.cpu0.dcache.ReadReq_accesses::switch_cpus0.data        41572                       # number of ReadReq accesses(hits+misses)
system.cpu0.dcache.ReadReq_accesses::total        41572                       # number of ReadReq accesses(hits+misses)
system.cpu0.dcache.WriteReq_accesses::switch_cpus0.data        28083                       # number of WriteReq accesses(hits+misses)
system.cpu0.dcache.WriteReq_accesses::total        28083                       # number of WriteReq accesses(hits+misses)
system.cpu0.dcache.LoadLockedReq_accesses::switch_cpus0.data          690                       # number of LoadLockedReq accesses(hits+misses)
system.cpu0.dcache.LoadLockedReq_accesses::total          690                       # number of LoadLockedReq accesses(hits+misses)
system.cpu0.dcache.StoreCondReq_accesses::switch_cpus0.data          619                       # number of StoreCondReq accesses(hits+misses)
system.cpu0.dcache.StoreCondReq_accesses::total          619                       # number of StoreCondReq accesses(hits+misses)
system.cpu0.dcache.demand_accesses::switch_cpus0.data        69655                       # number of demand (read+write) accesses
system.cpu0.dcache.demand_accesses::total        69655                       # number of demand (read+write) accesses
system.cpu0.dcache.overall_accesses::switch_cpus0.data        69655                       # number of overall (read+write) accesses
system.cpu0.dcache.overall_accesses::total        69655                       # number of overall (read+write) accesses
system.cpu0.dcache.ReadReq_miss_rate::switch_cpus0.data     0.209636                       # miss rate for ReadReq accesses
system.cpu0.dcache.ReadReq_miss_rate::total     0.209636                       # miss rate for ReadReq accesses
system.cpu0.dcache.WriteReq_miss_rate::switch_cpus0.data     0.515187                       # miss rate for WriteReq accesses
system.cpu0.dcache.WriteReq_miss_rate::total     0.515187                       # miss rate for WriteReq accesses
system.cpu0.dcache.LoadLockedReq_miss_rate::switch_cpus0.data     0.227536                       # miss rate for LoadLockedReq accesses
system.cpu0.dcache.LoadLockedReq_miss_rate::total     0.227536                       # miss rate for LoadLockedReq accesses
system.cpu0.dcache.StoreCondReq_miss_rate::switch_cpus0.data     0.037157                       # miss rate for StoreCondReq accesses
system.cpu0.dcache.StoreCondReq_miss_rate::total     0.037157                       # miss rate for StoreCondReq accesses
system.cpu0.dcache.demand_miss_rate::switch_cpus0.data     0.332826                       # miss rate for demand accesses
system.cpu0.dcache.demand_miss_rate::total     0.332826                       # miss rate for demand accesses
system.cpu0.dcache.overall_miss_rate::switch_cpus0.data     0.332826                       # miss rate for overall accesses
system.cpu0.dcache.overall_miss_rate::total     0.332826                       # miss rate for overall accesses
system.cpu0.dcache.ReadReq_avg_miss_latency::switch_cpus0.data 61192.998508                       # average ReadReq miss latency
system.cpu0.dcache.ReadReq_avg_miss_latency::total 61192.998508                       # average ReadReq miss latency
system.cpu0.dcache.WriteReq_avg_miss_latency::switch_cpus0.data 75186.632154                       # average WriteReq miss latency
system.cpu0.dcache.WriteReq_avg_miss_latency::total 75186.632154                       # average WriteReq miss latency
system.cpu0.dcache.LoadLockedReq_avg_miss_latency::switch_cpus0.data 71308.917197                       # average LoadLockedReq miss latency
system.cpu0.dcache.LoadLockedReq_avg_miss_latency::total 71308.917197                       # average LoadLockedReq miss latency
system.cpu0.dcache.StoreCondReq_avg_miss_latency::switch_cpus0.data  9652.347826                       # average StoreCondReq miss latency
system.cpu0.dcache.StoreCondReq_avg_miss_latency::total  9652.347826                       # average StoreCondReq miss latency
system.cpu0.dcache.demand_avg_miss_latency::switch_cpus0.data 69926.117241                       # average overall miss latency
system.cpu0.dcache.demand_avg_miss_latency::total 69926.117241                       # average overall miss latency
system.cpu0.dcache.overall_avg_miss_latency::switch_cpus0.data 69926.117241                       # average overall miss latency
system.cpu0.dcache.overall_avg_miss_latency::total 69926.117241                       # average overall miss latency
system.cpu0.dcache.blocked_cycles::no_mshrs        94619                       # number of cycles access was blocked
system.cpu0.dcache.blocked_cycles::no_targets           19                       # number of cycles access was blocked
system.cpu0.dcache.blocked::no_mshrs             2004                       # number of cycles access was blocked
system.cpu0.dcache.blocked::no_targets              1                       # number of cycles access was blocked
system.cpu0.dcache.avg_blocked_cycles::no_mshrs    47.215070                       # average number of cycles each access was blocked
system.cpu0.dcache.avg_blocked_cycles::no_targets           19                       # average number of cycles each access was blocked
system.cpu0.dcache.fast_writes                      0                       # number of fast writes performed
system.cpu0.dcache.cache_copies                     0                       # number of cache copies performed
system.cpu0.dcache.writebacks::writebacks         2798                       # number of writebacks
system.cpu0.dcache.writebacks::total             2798                       # number of writebacks
system.cpu0.dcache.ReadReq_mshr_hits::switch_cpus0.data         5934                       # number of ReadReq MSHR hits
system.cpu0.dcache.ReadReq_mshr_hits::total         5934                       # number of ReadReq MSHR hits
system.cpu0.dcache.WriteReq_mshr_hits::switch_cpus0.data        12387                       # number of WriteReq MSHR hits
system.cpu0.dcache.WriteReq_mshr_hits::total        12387                       # number of WriteReq MSHR hits
system.cpu0.dcache.LoadLockedReq_mshr_hits::switch_cpus0.data           56                       # number of LoadLockedReq MSHR hits
system.cpu0.dcache.LoadLockedReq_mshr_hits::total           56                       # number of LoadLockedReq MSHR hits
system.cpu0.dcache.demand_mshr_hits::switch_cpus0.data        18321                       # number of demand (read+write) MSHR hits
system.cpu0.dcache.demand_mshr_hits::total        18321                       # number of demand (read+write) MSHR hits
system.cpu0.dcache.overall_mshr_hits::switch_cpus0.data        18321                       # number of overall MSHR hits
system.cpu0.dcache.overall_mshr_hits::total        18321                       # number of overall MSHR hits
system.cpu0.dcache.ReadReq_mshr_misses::switch_cpus0.data         2781                       # number of ReadReq MSHR misses
system.cpu0.dcache.ReadReq_mshr_misses::total         2781                       # number of ReadReq MSHR misses
system.cpu0.dcache.WriteReq_mshr_misses::switch_cpus0.data         2081                       # number of WriteReq MSHR misses
system.cpu0.dcache.WriteReq_mshr_misses::total         2081                       # number of WriteReq MSHR misses
system.cpu0.dcache.LoadLockedReq_mshr_misses::switch_cpus0.data          101                       # number of LoadLockedReq MSHR misses
system.cpu0.dcache.LoadLockedReq_mshr_misses::total          101                       # number of LoadLockedReq MSHR misses
system.cpu0.dcache.StoreCondReq_mshr_misses::switch_cpus0.data           23                       # number of StoreCondReq MSHR misses
system.cpu0.dcache.StoreCondReq_mshr_misses::total           23                       # number of StoreCondReq MSHR misses
system.cpu0.dcache.demand_mshr_misses::switch_cpus0.data         4862                       # number of demand (read+write) MSHR misses
system.cpu0.dcache.demand_mshr_misses::total         4862                       # number of demand (read+write) MSHR misses
system.cpu0.dcache.overall_mshr_misses::switch_cpus0.data         4862                       # number of overall MSHR misses
system.cpu0.dcache.overall_mshr_misses::total         4862                       # number of overall MSHR misses
system.cpu0.dcache.WriteReq_mshr_uncacheable::switch_cpus0.data            3                       # number of WriteReq MSHR uncacheable
system.cpu0.dcache.WriteReq_mshr_uncacheable::total            3                       # number of WriteReq MSHR uncacheable
system.cpu0.dcache.overall_mshr_uncacheable_misses::switch_cpus0.data            3                       # number of overall MSHR uncacheable misses
system.cpu0.dcache.overall_mshr_uncacheable_misses::total            3                       # number of overall MSHR uncacheable misses
system.cpu0.dcache.ReadReq_mshr_miss_latency::switch_cpus0.data    195658774                       # number of ReadReq MSHR miss cycles
system.cpu0.dcache.ReadReq_mshr_miss_latency::total    195658774                       # number of ReadReq MSHR miss cycles
system.cpu0.dcache.WriteReq_mshr_miss_latency::switch_cpus0.data    173911542                       # number of WriteReq MSHR miss cycles
system.cpu0.dcache.WriteReq_mshr_miss_latency::total    173911542                       # number of WriteReq MSHR miss cycles
system.cpu0.dcache.LoadLockedReq_mshr_miss_latency::switch_cpus0.data      7522750                       # number of LoadLockedReq MSHR miss cycles
system.cpu0.dcache.LoadLockedReq_mshr_miss_latency::total      7522750                       # number of LoadLockedReq MSHR miss cycles
system.cpu0.dcache.StoreCondReq_mshr_miss_latency::switch_cpus0.data       187496                       # number of StoreCondReq MSHR miss cycles
system.cpu0.dcache.StoreCondReq_mshr_miss_latency::total       187496                       # number of StoreCondReq MSHR miss cycles
system.cpu0.dcache.demand_mshr_miss_latency::switch_cpus0.data    369570316                       # number of demand (read+write) MSHR miss cycles
system.cpu0.dcache.demand_mshr_miss_latency::total    369570316                       # number of demand (read+write) MSHR miss cycles
system.cpu0.dcache.overall_mshr_miss_latency::switch_cpus0.data    369570316                       # number of overall MSHR miss cycles
system.cpu0.dcache.overall_mshr_miss_latency::total    369570316                       # number of overall MSHR miss cycles
system.cpu0.dcache.WriteReq_mshr_uncacheable_latency::switch_cpus0.data       671000                       # number of WriteReq MSHR uncacheable cycles
system.cpu0.dcache.WriteReq_mshr_uncacheable_latency::total       671000                       # number of WriteReq MSHR uncacheable cycles
system.cpu0.dcache.overall_mshr_uncacheable_latency::switch_cpus0.data       671000                       # number of overall MSHR uncacheable cycles
system.cpu0.dcache.overall_mshr_uncacheable_latency::total       671000                       # number of overall MSHR uncacheable cycles
system.cpu0.dcache.ReadReq_mshr_miss_rate::switch_cpus0.data     0.066896                       # mshr miss rate for ReadReq accesses
system.cpu0.dcache.ReadReq_mshr_miss_rate::total     0.066896                       # mshr miss rate for ReadReq accesses
system.cpu0.dcache.WriteReq_mshr_miss_rate::switch_cpus0.data     0.074102                       # mshr miss rate for WriteReq accesses
system.cpu0.dcache.WriteReq_mshr_miss_rate::total     0.074102                       # mshr miss rate for WriteReq accesses
system.cpu0.dcache.LoadLockedReq_mshr_miss_rate::switch_cpus0.data     0.146377                       # mshr miss rate for LoadLockedReq accesses
system.cpu0.dcache.LoadLockedReq_mshr_miss_rate::total     0.146377                       # mshr miss rate for LoadLockedReq accesses
system.cpu0.dcache.StoreCondReq_mshr_miss_rate::switch_cpus0.data     0.037157                       # mshr miss rate for StoreCondReq accesses
system.cpu0.dcache.StoreCondReq_mshr_miss_rate::total     0.037157                       # mshr miss rate for StoreCondReq accesses
system.cpu0.dcache.demand_mshr_miss_rate::switch_cpus0.data     0.069801                       # mshr miss rate for demand accesses
system.cpu0.dcache.demand_mshr_miss_rate::total     0.069801                       # mshr miss rate for demand accesses
system.cpu0.dcache.overall_mshr_miss_rate::switch_cpus0.data     0.069801                       # mshr miss rate for overall accesses
system.cpu0.dcache.overall_mshr_miss_rate::total     0.069801                       # mshr miss rate for overall accesses
system.cpu0.dcache.ReadReq_avg_mshr_miss_latency::switch_cpus0.data 70355.546206                       # average ReadReq mshr miss latency
system.cpu0.dcache.ReadReq_avg_mshr_miss_latency::total 70355.546206                       # average ReadReq mshr miss latency
system.cpu0.dcache.WriteReq_avg_mshr_miss_latency::switch_cpus0.data 83571.139837                       # average WriteReq mshr miss latency
system.cpu0.dcache.WriteReq_avg_mshr_miss_latency::total 83571.139837                       # average WriteReq mshr miss latency
system.cpu0.dcache.LoadLockedReq_avg_mshr_miss_latency::switch_cpus0.data 74482.673267                       # average LoadLockedReq mshr miss latency
system.cpu0.dcache.LoadLockedReq_avg_mshr_miss_latency::total 74482.673267                       # average LoadLockedReq mshr miss latency
system.cpu0.dcache.StoreCondReq_avg_mshr_miss_latency::switch_cpus0.data         8152                       # average StoreCondReq mshr miss latency
system.cpu0.dcache.StoreCondReq_avg_mshr_miss_latency::total         8152                       # average StoreCondReq mshr miss latency
system.cpu0.dcache.demand_avg_mshr_miss_latency::switch_cpus0.data 76011.994241                       # average overall mshr miss latency
system.cpu0.dcache.demand_avg_mshr_miss_latency::total 76011.994241                       # average overall mshr miss latency
system.cpu0.dcache.overall_avg_mshr_miss_latency::switch_cpus0.data 76011.994241                       # average overall mshr miss latency
system.cpu0.dcache.overall_avg_mshr_miss_latency::total 76011.994241                       # average overall mshr miss latency
system.cpu0.dcache.WriteReq_avg_mshr_uncacheable_latency::switch_cpus0.data 223666.666667                       # average WriteReq mshr uncacheable latency
system.cpu0.dcache.WriteReq_avg_mshr_uncacheable_latency::total 223666.666667                       # average WriteReq mshr uncacheable latency
system.cpu0.dcache.overall_avg_mshr_uncacheable_latency::switch_cpus0.data 223666.666667                       # average overall mshr uncacheable latency
system.cpu0.dcache.overall_avg_mshr_uncacheable_latency::total 223666.666667                       # average overall mshr uncacheable latency
system.cpu0.dcache.no_allocate_misses               0                       # Number of misses that were no-allocate
system.cpu0.icache.tags.replacements             3500                       # number of replacements
system.cpu0.icache.tags.tagsinuse          511.674180                       # Cycle average of tags in use
system.cpu0.icache.tags.total_refs             261119                       # Total number of references to valid blocks.
system.cpu0.icache.tags.sampled_refs             3500                       # Sample count of references to valid blocks.
system.cpu0.icache.tags.avg_refs            74.605429                       # Average number of references to valid blocks.
system.cpu0.icache.tags.warmup_cycle                0                       # Cycle when the warmup percentage was hit.
system.cpu0.icache.tags.occ_blocks::cpu0.inst    20.056572                       # Average occupied blocks per requestor
system.cpu0.icache.tags.occ_blocks::switch_cpus0.inst   491.617608                       # Average occupied blocks per requestor
system.cpu0.icache.tags.occ_percent::cpu0.inst     0.039173                       # Average percentage of cache occupancy
system.cpu0.icache.tags.occ_percent::switch_cpus0.inst     0.960191                       # Average percentage of cache occupancy
system.cpu0.icache.tags.occ_percent::total     0.999364                       # Average percentage of cache occupancy
system.cpu0.icache.tags.occ_task_id_blocks::1024          512                       # Occupied blocks per task id
system.cpu0.icache.tags.age_task_id_blocks_1024::2          469                       # Occupied blocks per task id
system.cpu0.icache.tags.age_task_id_blocks_1024::3           43                       # Occupied blocks per task id
system.cpu0.icache.tags.occ_task_id_percent::1024            1                       # Percentage of cache occupancy per task id
system.cpu0.icache.tags.tag_accesses            86348                       # Number of tag accesses
system.cpu0.icache.tags.data_accesses           86348                       # Number of data accesses
system.cpu0.icache.ReadReq_hits::switch_cpus0.inst        37140                       # number of ReadReq hits
system.cpu0.icache.ReadReq_hits::total          37140                       # number of ReadReq hits
system.cpu0.icache.demand_hits::switch_cpus0.inst        37140                       # number of demand (read+write) hits
system.cpu0.icache.demand_hits::total           37140                       # number of demand (read+write) hits
system.cpu0.icache.overall_hits::switch_cpus0.inst        37140                       # number of overall hits
system.cpu0.icache.overall_hits::total          37140                       # number of overall hits
system.cpu0.icache.ReadReq_misses::switch_cpus0.inst         4281                       # number of ReadReq misses
system.cpu0.icache.ReadReq_misses::total         4281                       # number of ReadReq misses
system.cpu0.icache.demand_misses::switch_cpus0.inst         4281                       # number of demand (read+write) misses
system.cpu0.icache.demand_misses::total          4281                       # number of demand (read+write) misses
system.cpu0.icache.overall_misses::switch_cpus0.inst         4281                       # number of overall misses
system.cpu0.icache.overall_misses::total         4281                       # number of overall misses
system.cpu0.icache.ReadReq_miss_latency::switch_cpus0.inst    308137354                       # number of ReadReq miss cycles
system.cpu0.icache.ReadReq_miss_latency::total    308137354                       # number of ReadReq miss cycles
system.cpu0.icache.demand_miss_latency::switch_cpus0.inst    308137354                       # number of demand (read+write) miss cycles
system.cpu0.icache.demand_miss_latency::total    308137354                       # number of demand (read+write) miss cycles
system.cpu0.icache.overall_miss_latency::switch_cpus0.inst    308137354                       # number of overall miss cycles
system.cpu0.icache.overall_miss_latency::total    308137354                       # number of overall miss cycles
[...]
system.switch_cpus3.int_regfile_reads          761161                       # number of integer regfile reads
system.switch_cpus3.int_regfile_writes         362885                       # number of integer regfile writes
system.switch_cpus3.fp_regfile_reads             2643                       # number of floating regfile reads
system.switch_cpus3.fp_regfile_writes            2428                       # number of floating regfile writes
system.switch_cpus3.misc_regfile_reads          23304                       # number of misc regfile reads
system.switch_cpus3.misc_regfile_writes          8336                       # number of misc regfile writes
system.tol2bus.trans_dist::ReadReq              50438                       # Transaction distribution
system.tol2bus.trans_dist::ReadResp             50441                       # Transaction distribution
system.tol2bus.trans_dist::WriteReq               644                       # Transaction distribution
system.tol2bus.trans_dist::WriteResp              644                       # Transaction distribution
system.tol2bus.trans_dist::Writeback            24521                       # Transaction distribution
system.tol2bus.trans_dist::UpgradeReq             573                       # Transaction distribution
system.tol2bus.trans_dist::SCUpgradeReq           398                       # Transaction distribution
system.tol2bus.trans_dist::UpgradeResp            971                       # Transaction distribution
system.tol2bus.trans_dist::SCUpgradeFailReq           11                       # Transaction distribution
system.tol2bus.trans_dist::UpgradeFailResp           11                       # Transaction distribution
system.tol2bus.trans_dist::ReadExReq            12812                       # Transaction distribution
system.tol2bus.trans_dist::ReadExResp           12812                       # Transaction distribution
system.tol2bus.pkt_count_system.cpu0.icache.mem_side::system.l2.cpu_side        16791                       # Packet count per connected master and slave (bytes)
system.tol2bus.pkt_count_system.cpu0.dcache.mem_side::system.l2.cpu_side        45836                       # Packet count per connected master and slave (bytes)
system.tol2bus.pkt_count_system.cpu1.icache.mem_side::system.l2.cpu_side        11191                       # Packet count per connected master and slave (bytes)
system.tol2bus.pkt_count_system.cpu1.dcache.mem_side::system.l2.cpu_side        18632                       # Packet count per connected master and slave (bytes)
system.tol2bus.pkt_count_system.cpu2.icache.mem_side::system.l2.cpu_side         6086                       # Packet count per connected master and slave (bytes)
system.tol2bus.pkt_count_system.cpu2.dcache.mem_side::system.l2.cpu_side         7360                       # Packet count per connected master and slave (bytes)
system.tol2bus.pkt_count_system.cpu3.icache.mem_side::system.l2.cpu_side        13153                       # Packet count per connected master and slave (bytes)
system.tol2bus.pkt_count_system.cpu3.dcache.mem_side::system.l2.cpu_side        33500                       # Packet count per connected master and slave (bytes)
system.tol2bus.pkt_count::total                152549                       # Packet count per connected master and slave (bytes)
system.tol2bus.pkt_size_system.cpu0.icache.mem_side::system.l2.cpu_side       537280                       # Cumulative packet size per connected master and slave (bytes)
system.tol2bus.pkt_size_system.cpu0.dcache.mem_side::system.l2.cpu_side      1715497                       # Cumulative packet size per connected master and slave (bytes)
system.tol2bus.pkt_size_system.cpu1.icache.mem_side::system.l2.cpu_side       358080                       # Cumulative packet size per connected master and slave (bytes)
system.tol2bus.pkt_size_system.cpu1.dcache.mem_side::system.l2.cpu_side       702841                       # Cumulative packet size per connected master and slave (bytes)
system.tol2bus.pkt_size_system.cpu2.icache.mem_side::system.l2.cpu_side       194752                       # Cumulative packet size per connected master and slave (bytes)
system.tol2bus.pkt_size_system.cpu2.dcache.mem_side::system.l2.cpu_side       250368                       # Cumulative packet size per connected master and slave (bytes)
system.tol2bus.pkt_size_system.cpu3.icache.mem_side::system.l2.cpu_side       420736                       # Cumulative packet size per connected master and slave (bytes)
system.tol2bus.pkt_size_system.cpu3.dcache.mem_side::system.l2.cpu_side      1299592                       # Cumulative packet size per connected master and slave (bytes)
system.tol2bus.pkt_size::total                5479146                       # Cumulative packet size per connected master and slave (bytes)
system.tol2bus.snoops                            1727                       # Total snoops (count)
system.tol2bus.snoop_fanout::samples            89397                       # Request fanout histogram
system.tol2bus.snoop_fanout::mean                   7                       # Request fanout histogram
system.tol2bus.snoop_fanout::stdev                  0                       # Request fanout histogram
system.tol2bus.snoop_fanout::underflows             0      0.00%      0.00% # Request fanout histogram
system.tol2bus.snoop_fanout::0                      0      0.00%      0.00% # Request fanout histogram
system.tol2bus.snoop_fanout::1                      0      0.00%      0.00% # Request fanout histogram
system.tol2bus.snoop_fanout::2                      0      0.00%      0.00% # Request fanout histogram
system.tol2bus.snoop_fanout::3                      0      0.00%      0.00% # Request fanout histogram
system.tol2bus.snoop_fanout::4                      0      0.00%      0.00% # Request fanout histogram
system.tol2bus.snoop_fanout::5                      0      0.00%      0.00% # Request fanout histogram
system.tol2bus.snoop_fanout::6                      0      0.00%      0.00% # Request fanout histogram
system.tol2bus.snoop_fanout::7                  89397    100.00%    100.00% # Request fanout histogram
system.tol2bus.snoop_fanout::8                      0      0.00%    100.00% # Request fanout histogram
system.tol2bus.snoop_fanout::overflows              0      0.00%    100.00% # Request fanout histogram
system.tol2bus.snoop_fanout::min_value              7                       # Request fanout histogram
system.tol2bus.snoop_fanout::max_value              7                       # Request fanout histogram
system.tol2bus.snoop_fanout::total              89397                       # Request fanout histogram
system.tol2bus.reqLayer0.occupancy           69541999                       # Layer occupancy (ticks)
system.tol2bus.reqLayer0.utilization              2.0                       # Layer utilization (%)
system.tol2bus.respLayer0.occupancy          13259395                       # Layer occupancy (ticks)
system.tol2bus.respLayer0.utilization             0.4                       # Layer utilization (%)
system.tol2bus.respLayer1.occupancy          26533034                       # Layer occupancy (ticks)
system.tol2bus.respLayer1.utilization             0.7                       # Layer utilization (%)
system.tol2bus.respLayer2.occupancy           9175603                       # Layer occupancy (ticks)
system.tol2bus.respLayer2.utilization             0.3                       # Layer utilization (%)
system.tol2bus.respLayer3.occupancy          12050514                       # Layer occupancy (ticks)
system.tol2bus.respLayer3.utilization             0.3                       # Layer utilization (%)
system.tol2bus.respLayer4.occupancy           4861556                       # Layer occupancy (ticks)
system.tol2bus.respLayer4.utilization             0.1                       # Layer utilization (%)
system.tol2bus.respLayer5.occupancy           4876122                       # Layer occupancy (ticks)
system.tol2bus.respLayer5.utilization             0.1                       # Layer utilization (%)
system.tol2bus.respLayer6.occupancy          10706077                       # Layer occupancy (ticks)
system.tol2bus.respLayer6.utilization             0.3                       # Layer utilization (%)
system.tol2bus.respLayer7.occupancy          20910554                       # Layer occupancy (ticks)
system.tol2bus.respLayer7.utilization             0.6                       # Layer utilization (%)
system.tsunami.ethernet.descDMAReads                0                       # Number of descriptors the device read w/ DMA
system.tsunami.ethernet.descDMAWrites               0                       # Number of descriptors the device wrote w/ DMA
system.tsunami.ethernet.descDmaReadBytes            0                       # number of descriptor bytes read w/ DMA
system.tsunami.ethernet.descDmaWriteBytes            0                       # number of descriptor bytes write w/ DMA
system.tsunami.ethernet.postedSwi                   0                       # number of software interrupts posted to CPU
system.tsunami.ethernet.coalescedSwi              nan                       # average number of Swi's coalesced into each post
system.tsunami.ethernet.totalSwi                    0                       # total number of Swi written to ISR
system.tsunami.ethernet.postedRxIdle                0                       # number of rxIdle interrupts posted to CPU
system.tsunami.ethernet.coalescedRxIdle           nan                       # average number of RxIdle's coalesced into each post
system.tsunami.ethernet.totalRxIdle                 0                       # total number of RxIdle written to ISR
system.tsunami.ethernet.postedRxOk                  0                       # number of RxOk interrupts posted to CPU
system.tsunami.ethernet.coalescedRxOk             nan                       # average number of RxOk's coalesced into each post
system.tsunami.ethernet.totalRxOk                   0                       # total number of RxOk written to ISR
system.tsunami.ethernet.postedRxDesc                0                       # number of RxDesc interrupts posted to CPU
system.tsunami.ethernet.coalescedRxDesc           nan                       # average number of RxDesc's coalesced into each post
system.tsunami.ethernet.totalRxDesc                 0                       # total number of RxDesc written to ISR
system.tsunami.ethernet.postedTxOk                  0                       # number of TxOk interrupts posted to CPU
system.tsunami.ethernet.coalescedTxOk             nan                       # average number of TxOk's coalesced into each post
system.tsunami.ethernet.totalTxOk                   0                       # total number of TxOk written to ISR
system.tsunami.ethernet.postedTxIdle                0                       # number of TxIdle interrupts posted to CPU
system.tsunami.ethernet.coalescedTxIdle           nan                       # average number of TxIdle's coalesced into each post
system.tsunami.ethernet.totalTxIdle                 0                       # total number of TxIdle written to ISR
system.tsunami.ethernet.postedTxDesc                0                       # number of TxDesc interrupts posted to CPU
system.tsunami.ethernet.coalescedTxDesc           nan                       # average number of TxDesc's coalesced into each post
system.tsunami.ethernet.totalTxDesc                 0                       # total number of TxDesc written to ISR
system.tsunami.ethernet.postedRxOrn                 0                       # number of RxOrn posted to CPU
system.tsunami.ethernet.coalescedRxOrn            nan                       # average number of RxOrn's coalesced into each post
system.tsunami.ethernet.totalRxOrn                  0                       # total number of RxOrn written to ISR
system.tsunami.ethernet.coalescedTotal            nan                       # average number of interrupts coalesced into each post
system.tsunami.ethernet.postedInterrupts            0                       # number of posts to CPU
system.tsunami.ethernet.droppedPackets              0                       # number of packets dropped
system.switch_cpus0.kern.inst.arm                   0                       # number of arm instructions executed
system.switch_cpus0.kern.inst.quiesce               0                       # number of quiesce instructions executed
system.switch_cpus0.kern.inst.hwrei                 0                       # number of hwrei instructions executed
system.switch_cpus0.kern.mode_switch::kernel            0                       # number of protection mode switches
system.switch_cpus0.kern.mode_switch::user            0                       # number of protection mode switches
system.switch_cpus0.kern.mode_switch::idle            0                       # number of protection mode switches
system.switch_cpus0.kern.mode_good::kernel            0                      
system.switch_cpus0.kern.mode_good::user            0                      
system.switch_cpus0.kern.mode_good::idle            0                      
system.switch_cpus0.kern.mode_switch_good::kernel          nan                       # fraction of useful protection mode switches
system.switch_cpus0.kern.mode_switch_good::user          nan                       # fraction of useful protection mode switches
system.switch_cpus0.kern.mode_switch_good::idle          nan                       # fraction of useful protection mode switches
system.switch_cpus0.kern.mode_switch_good::total          nan                       # fraction of useful protection mode switches
system.switch_cpus0.kern.mode_ticks::kernel            0                       # number of ticks spent at the given mode
system.switch_cpus0.kern.mode_ticks::user            0                       # number of ticks spent at the given mode
system.switch_cpus0.kern.mode_ticks::idle            0                       # number of ticks spent at the given mode
system.switch_cpus0.kern.swap_context               0                       # number of times the context was actually changed
system.switch_cpus1.kern.inst.arm                   0                       # number of arm instructions executed
system.switch_cpus1.kern.inst.quiesce               0                       # number of quiesce instructions executed
system.switch_cpus1.kern.inst.hwrei                 0                       # number of hwrei instructions executed
system.switch_cpus1.kern.mode_switch::kernel            0                       # number of protection mode switches
system.switch_cpus1.kern.mode_switch::user            0                       # number of protection mode switches
system.switch_cpus1.kern.mode_switch::idle            0                       # number of protection mode switches
system.switch_cpus1.kern.mode_good::kernel            0                      
system.switch_cpus1.kern.mode_good::user            0                      
system.switch_cpus1.kern.mode_good::idle            0                      
system.switch_cpus1.kern.mode_switch_good::kernel          nan                       # fraction of useful protection mode switches
system.switch_cpus1.kern.mode_switch_good::user          nan                       # fraction of useful protection mode switches
system.switch_cpus1.kern.mode_switch_good::idle          nan                       # fraction of useful protection mode switches
system.switch_cpus1.kern.mode_switch_good::total          nan                       # fraction of useful protection mode switches
system.switch_cpus1.kern.mode_ticks::kernel            0                       # number of ticks spent at the given mode
system.switch_cpus1.kern.mode_ticks::user            0                       # number of ticks spent at the given mode
system.switch_cpus1.kern.mode_ticks::idle            0                       # number of ticks spent at the given mode
system.switch_cpus1.kern.swap_context               0                       # number of times the context was actually changed
system.switch_cpus2.kern.inst.arm                   0                       # number of arm instructions executed
system.switch_cpus2.kern.inst.quiesce               0                       # number of quiesce instructions executed
system.switch_cpus2.kern.inst.hwrei                 0                       # number of hwrei instructions executed
system.switch_cpus2.kern.mode_switch::kernel            0                       # number of protection mode switches
system.switch_cpus2.kern.mode_switch::user            0                       # number of protection mode switches
system.switch_cpus2.kern.mode_switch::idle            0                       # number of protection mode switches
system.switch_cpus2.kern.mode_good::kernel            0                      
system.switch_cpus2.kern.mode_good::user            0                      
system.switch_cpus2.kern.mode_good::idle            0                      
system.switch_cpus2.kern.mode_switch_good::kernel          nan                       # fraction of useful protection mode switches
system.switch_cpus2.kern.mode_switch_good::user          nan                       # fraction of useful protection mode switches
system.switch_cpus2.kern.mode_switch_good::idle          nan                       # fraction of useful protection mode switches
system.switch_cpus2.kern.mode_switch_good::total          nan                       # fraction of useful protection mode switches
system.switch_cpus2.kern.mode_ticks::kernel            0                       # number of ticks spent at the given mode
system.switch_cpus2.kern.mode_ticks::user            0                       # number of ticks spent at the given mode
system.switch_cpus2.kern.mode_ticks::idle            0                       # number of ticks spent at the given mode
system.switch_cpus2.kern.swap_context               0                       # number of times the context was actually changed
system.switch_cpus3.kern.inst.arm                   0                       # number of arm instructions executed
system.switch_cpus3.kern.inst.quiesce               0                       # number of quiesce instructions executed
system.switch_cpus3.kern.inst.hwrei                 0                       # number of hwrei instructions executed
system.switch_cpus3.kern.mode_switch::kernel            0                       # number of protection mode switches
system.switch_cpus3.kern.mode_switch::user            0                       # number of protection mode switches
system.switch_cpus3.kern.mode_switch::idle            0                       # number of protection mode switches
system.switch_cpus3.kern.mode_good::kernel            0                      
system.switch_cpus3.kern.mode_good::user            0                      
system.switch_cpus3.kern.mode_good::idle            0                      
system.switch_cpus3.kern.mode_switch_good::kernel          nan                       # fraction of useful protection mode switches
system.switch_cpus3.kern.mode_switch_good::user          nan                       # fraction of useful protection mode switches
system.switch_cpus3.kern.mode_switch_good::idle          nan                       # fraction of useful protection mode switches
system.switch_cpus3.kern.mode_switch_good::total          nan                       # fraction of useful protection mode switches
system.switch_cpus3.kern.mode_ticks::kernel            0                       # number of ticks spent at the given mode
system.switch_cpus3.kern.mode_ticks::user            0                       # number of ticks spent at the given mode
system.switch_cpus3.kern.mode_ticks::idle            0                       # number of ticks spent at the given mode
system.switch_cpus3.kern.swap_context               0                       # number of times the context was actually changed

---------- End Simulation Statistics   ----------
