
---------- Begin Simulation Statistics ----------
sim_seconds                                  0.000665                       # Number of seconds simulated
sim_ticks                                   665329500                       # Number of ticks simulated
final_tick                               2255105228500                       # Number of ticks from beginning of simulation (restored from checkpoints and never reset)
sim_freq                                 1000000000000                       # Frequency of simulated ticks
host_inst_rate                               38433802                       # Simulator instruction rate (inst/s)
host_op_rate                                 38433695                       # Simulator op (including micro ops) rate (op/s)
host_tick_rate                              260972801                       # Simulator tick rate (ticks/s)
host_mem_usage                                 736368                       # Number of bytes of host memory used
host_seconds                                     2.55                       # Real time elapsed on the host
sim_insts                                    97983428                       # Number of instructions simulated
sim_ops                                      97983428                       # Number of ops (including micro ops) simulated
system.voltage_domain.voltage                       1                       # Voltage in Volts
system.clk_domain.clock                          1000                       # Clock period in ticks
system.mem_ctrls.bytes_read::switch_cpus.inst       112000                       # Number of bytes read from this memory
system.mem_ctrls.bytes_read::switch_cpus.data       229056                       # Number of bytes read from this memory
system.mem_ctrls.bytes_read::total             341056                       # Number of bytes read from this memory
system.mem_ctrls.bytes_inst_read::switch_cpus.inst       112000                       # Number of instructions bytes read from this memory
system.mem_ctrls.bytes_inst_read::total        112000                       # Number of instructions bytes read from this memory
system.mem_ctrls.bytes_written::writebacks       155456                       # Number of bytes written to this memory
system.mem_ctrls.bytes_written::total          155456                       # Number of bytes written to this memory
system.mem_ctrls.num_reads::switch_cpus.inst         1750                       # Number of read requests responded to by this memory
system.mem_ctrls.num_reads::switch_cpus.data         3579                       # Number of read requests responded to by this memory
system.mem_ctrls.num_reads::total                5329                       # Number of read requests responded to by this memory
system.mem_ctrls.num_writes::writebacks          2429                       # Number of write requests responded to by this memory
system.mem_ctrls.num_writes::total               2429                       # Number of write requests responded to by this memory
system.mem_ctrls.bw_read::switch_cpus.inst    168337643                       # Total read bandwidth from this memory (bytes/s)
system.mem_ctrls.bw_read::switch_cpus.data    344274529                       # Total read bandwidth from this memory (bytes/s)
system.mem_ctrls.bw_read::total             512612172                       # Total read bandwidth from this memory (bytes/s)
system.mem_ctrls.bw_inst_read::switch_cpus.inst    168337643                       # Instruction read bandwidth from this memory (bytes/s)
system.mem_ctrls.bw_inst_read::total        168337643                       # Instruction read bandwidth from this memory (bytes/s)
system.mem_ctrls.bw_write::writebacks       233652649                       # Write bandwidth from this memory (bytes/s)
system.mem_ctrls.bw_write::total            233652649                       # Write bandwidth from this memory (bytes/s)
system.mem_ctrls.bw_total::writebacks       233652649                       # Total bandwidth to/from this memory (bytes/s)
system.mem_ctrls.bw_total::switch_cpus.inst    168337643                       # Total bandwidth to/from this memory (bytes/s)
system.mem_ctrls.bw_total::switch_cpus.data    344274529                       # Total bandwidth to/from this memory (bytes/s)
system.mem_ctrls.bw_total::total            746264821                       # Total bandwidth to/from this memory (bytes/s)
system.mem_ctrls.readReqs                        5329                       # Number of read requests accepted
system.mem_ctrls.writeReqs                       2429                       # Number of write requests accepted
system.mem_ctrls.readBursts                      5329                       # Number of DRAM read bursts, including those serviced by the write queue
system.mem_ctrls.writeBursts                     2429                       # Number of DRAM write bursts, including those merged in the write queue
system.mem_ctrls.bytesReadDRAM                 339264                       # Total number of bytes read from DRAM
system.mem_ctrls.bytesReadWrQ                    1792                       # Total number of bytes read from write queue
system.mem_ctrls.bytesWritten                  153856                       # Total number of bytes written to DRAM
system.mem_ctrls.bytesReadSys                  341056                       # Total read bytes from the system interface side
system.mem_ctrls.bytesWrittenSys               155456                       # Total written bytes from the system interface side
system.mem_ctrls.servicedByWrQ                     28                       # Number of DRAM read bursts serviced by the write queue
system.mem_ctrls.mergedWrBursts                     0                       # Number of DRAM write bursts merged with an existing one
system.mem_ctrls.neitherReadNorWriteReqs            0                       # Number of requests that are neither read nor write
system.mem_ctrls.perBankRdBursts::0               520                       # Per bank write bursts
system.mem_ctrls.perBankRdBursts::1               181                       # Per bank write bursts
system.mem_ctrls.perBankRdBursts::2               289                       # Per bank write bursts
system.mem_ctrls.perBankRdBursts::3               449                       # Per bank write bursts
system.mem_ctrls.perBankRdBursts::4               111                       # Per bank write bursts
system.mem_ctrls.perBankRdBursts::5               474                       # Per bank write bursts
system.mem_ctrls.perBankRdBursts::6               202                       # Per bank write bursts
system.mem_ctrls.perBankRdBursts::7               309                       # Per bank write bursts
system.mem_ctrls.perBankRdBursts::8               409                       # Per bank write bursts
system.mem_ctrls.perBankRdBursts::9               222                       # Per bank write bursts
system.mem_ctrls.perBankRdBursts::10              388                       # Per bank write bursts
system.mem_ctrls.perBankRdBursts::11              611                       # Per bank write bursts
system.mem_ctrls.perBankRdBursts::12              145                       # Per bank write bursts
system.mem_ctrls.perBankRdBursts::13              568                       # Per bank write bursts
system.mem_ctrls.perBankRdBursts::14              217                       # Per bank write bursts
system.mem_ctrls.perBankRdBursts::15              206                       # Per bank write bursts
system.mem_ctrls.perBankWrBursts::0               110                       # Per bank write bursts
system.mem_ctrls.perBankWrBursts::1                78                       # Per bank write bursts
system.mem_ctrls.perBankWrBursts::2               154                       # Per bank write bursts
system.mem_ctrls.perBankWrBursts::3               422                       # Per bank write bursts
system.mem_ctrls.perBankWrBursts::4                51                       # Per bank write bursts
system.mem_ctrls.perBankWrBursts::5               418                       # Per bank write bursts
system.mem_ctrls.perBankWrBursts::6                94                       # Per bank write bursts
system.mem_ctrls.perBankWrBursts::7               146                       # Per bank write bursts
system.mem_ctrls.perBankWrBursts::8               252                       # Per bank write bursts
system.mem_ctrls.perBankWrBursts::9                87                       # Per bank write bursts
system.mem_ctrls.perBankWrBursts::10              154                       # Per bank write bursts
system.mem_ctrls.perBankWrBursts::11              122                       # Per bank write bursts
system.mem_ctrls.perBankWrBursts::12               32                       # Per bank write bursts
system.mem_ctrls.perBankWrBursts::13              131                       # Per bank write bursts
system.mem_ctrls.perBankWrBursts::14               64                       # Per bank write bursts
system.mem_ctrls.perBankWrBursts::15               89                       # Per bank write bursts
system.mem_ctrls.numRdRetry                         0                       # Number of times read queue was full causing retry
system.mem_ctrls.numWrRetry                         0                       # Number of times write queue was full causing retry
system.mem_ctrls.totGap                     664913000                       # Total gap between requests
system.mem_ctrls.readPktSize::0                     0                       # Read request sizes (log2)
system.mem_ctrls.readPktSize::1                     0                       # Read request sizes (log2)
system.mem_ctrls.readPktSize::2                     0                       # Read request sizes (log2)
system.mem_ctrls.readPktSize::3                     0                       # Read request sizes (log2)
system.mem_ctrls.readPktSize::4                     0                       # Read request sizes (log2)
system.mem_ctrls.readPktSize::5                     0                       # Read request sizes (log2)
system.mem_ctrls.readPktSize::6                  5329                       # Read request sizes (log2)
system.mem_ctrls.writePktSize::0                    0                       # Write request sizes (log2)
system.mem_ctrls.writePktSize::1                    0                       # Write request sizes (log2)
system.mem_ctrls.writePktSize::2                    0                       # Write request sizes (log2)
system.mem_ctrls.writePktSize::3                    0                       # Write request sizes (log2)
system.mem_ctrls.writePktSize::4                    0                       # Write request sizes (log2)
system.mem_ctrls.writePktSize::5                    0                       # Write request sizes (log2)
system.mem_ctrls.writePktSize::6                 2429                       # Write request sizes (log2)
system.mem_ctrls.rdQLenPdf::0                    3289                       # What read queue length does an incoming req see
system.mem_ctrls.rdQLenPdf::1                    1256                       # What read queue length does an incoming req see
system.mem_ctrls.rdQLenPdf::2                     518                       # What read queue length does an incoming req see
system.mem_ctrls.rdQLenPdf::3                     238                       # What read queue length does an incoming req see
system.mem_ctrls.rdQLenPdf::4                       0                       # What read queue length does an incoming req see
system.mem_ctrls.rdQLenPdf::5                       0                       # What read queue length does an incoming req see
system.mem_ctrls.rdQLenPdf::6                       0                       # What read queue length does an incoming req see
system.mem_ctrls.rdQLenPdf::7                       0                       # What read queue length does an incoming req see
system.mem_ctrls.rdQLenPdf::8                       0                       # What read queue length does an incoming req see
system.mem_ctrls.rdQLenPdf::9                       0                       # What read queue length does an incoming req see
system.mem_ctrls.rdQLenPdf::10                      0                       # What read queue length does an incoming req see
system.mem_ctrls.rdQLenPdf::11                      0                       # What read queue length does an incoming req see
system.mem_ctrls.rdQLenPdf::12                      0                       # What read queue length does an incoming req see
system.mem_ctrls.rdQLenPdf::13                      0                       # What read queue length does an incoming req see
system.mem_ctrls.rdQLenPdf::14                      0                       # What read queue length does an incoming req see
system.mem_ctrls.rdQLenPdf::15                      0                       # What read queue length does an incoming req see
system.mem_ctrls.rdQLenPdf::16                      0                       # What read queue length does an incoming req see
system.mem_ctrls.rdQLenPdf::17                      0                       # What read queue length does an incoming req see
system.mem_ctrls.rdQLenPdf::18                      0                       # What read queue length does an incoming req see
system.mem_ctrls.rdQLenPdf::19                      0                       # What read queue length does an incoming req see
system.mem_ctrls.rdQLenPdf::20                      0                       # What read queue length does an incoming req see
system.mem_ctrls.rdQLenPdf::21                      0                       # What read queue length does an incoming req see
system.mem_ctrls.rdQLenPdf::22                      0                       # What read queue length does an incoming req see
system.mem_ctrls.rdQLenPdf::23                      0                       # What read queue length does an incoming req see
system.mem_ctrls.rdQLenPdf::24                      0                       # What read queue length does an incoming req see
system.mem_ctrls.rdQLenPdf::25                      0                       # What read queue length does an incoming req see
system.mem_ctrls.rdQLenPdf::26                      0                       # What read queue length does an incoming req see
system.mem_ctrls.rdQLenPdf::27                      0                       # What read queue length does an incoming req see
system.mem_ctrls.rdQLenPdf::28                      0                       # What read queue length does an incoming req see
system.mem_ctrls.rdQLenPdf::29                      0                       # What read queue length does an incoming req see
system.mem_ctrls.rdQLenPdf::30                      0                       # What read queue length does an incoming req see
system.mem_ctrls.rdQLenPdf::31                      0                       # What read queue length does an incoming req see
system.mem_ctrls.wrQLenPdf::0                       1                       # What write queue length does an incoming req see
system.mem_ctrls.wrQLenPdf::1                       1                       # What write queue length does an incoming req see
system.mem_ctrls.wrQLenPdf::2                       1                       # What write queue length does an incoming req see
system.mem_ctrls.wrQLenPdf::3                       1                       # What write queue length does an incoming req see
system.mem_ctrls.wrQLenPdf::4                       1                       # What write queue length does an incoming req see
system.mem_ctrls.wrQLenPdf::5                       1                       # What write queue length does an incoming req see
system.mem_ctrls.wrQLenPdf::6                       1                       # What write queue length does an incoming req see
system.mem_ctrls.wrQLenPdf::7                       1                       # What write queue length does an incoming req see
system.mem_ctrls.wrQLenPdf::8                       1                       # What write queue length does an incoming req see
system.mem_ctrls.wrQLenPdf::9                       1                       # What write queue length does an incoming req see
system.mem_ctrls.wrQLenPdf::10                      1                       # What write queue length does an incoming req see
system.mem_ctrls.wrQLenPdf::11                      1                       # What write queue length does an incoming req see
system.mem_ctrls.wrQLenPdf::12                      1                       # What write queue length does an incoming req see
system.mem_ctrls.wrQLenPdf::13                      1                       # What write queue length does an incoming req see
system.mem_ctrls.wrQLenPdf::14                      1                       # What write queue length does an incoming req see
system.mem_ctrls.wrQLenPdf::15                     39                       # What write queue length does an incoming req see
system.mem_ctrls.wrQLenPdf::16                     42                       # What write queue length does an incoming req see
system.mem_ctrls.wrQLenPdf::17                    103                       # What write queue length does an incoming req see
system.mem_ctrls.wrQLenPdf::18                    128                       # What write queue length does an incoming req see
system.mem_ctrls.wrQLenPdf::19                    142                       # What write queue length does an incoming req see
system.mem_ctrls.wrQLenPdf::20                    149                       # What write queue length does an incoming req see
system.mem_ctrls.wrQLenPdf::21                    149                       # What write queue length does an incoming req see
system.mem_ctrls.wrQLenPdf::22                    155                       # What write queue length does an incoming req see
system.mem_ctrls.wrQLenPdf::23                    153                       # What write queue length does an incoming req see
system.mem_ctrls.wrQLenPdf::24                    151                       # What write queue length does an incoming req see
system.mem_ctrls.wrQLenPdf::25                    148                       # What write queue length does an incoming req see
system.mem_ctrls.wrQLenPdf::26                    151                       # What write queue length does an incoming req see
system.mem_ctrls.wrQLenPdf::27                    150                       # What write queue length does an incoming req see
system.mem_ctrls.wrQLenPdf::28                    154                       # What write queue length does an incoming req see
system.mem_ctrls.wrQLenPdf::29                    163                       # What write queue length does an incoming req see
system.mem_ctrls.wrQLenPdf::30                    148                       # What write queue length does an incoming req see
system.mem_ctrls.wrQLenPdf::31                    145                       # What write queue length does an incoming req see
system.mem_ctrls.wrQLenPdf::32                    144                       # What write queue length does an incoming req see
system.mem_ctrls.wrQLenPdf::33                      0                       # What write queue length does an incoming req see
system.mem_ctrls.wrQLenPdf::34                      0                       # What write queue length does an incoming req see
system.mem_ctrls.wrQLenPdf::35                      0                       # What write queue length does an incoming req see
system.mem_ctrls.wrQLenPdf::36                      0                       # What write queue length does an incoming req see
system.mem_ctrls.wrQLenPdf::37                      0                       # What write queue length does an incoming req see
system.mem_ctrls.wrQLenPdf::38                      0                       # What write queue length does an incoming req see
system.mem_ctrls.wrQLenPdf::39                      0                       # What write queue length does an incoming req see
system.mem_ctrls.wrQLenPdf::40                      0                       # What write queue length does an incoming req see
system.mem_ctrls.wrQLenPdf::41                      0                       # What write queue length does an incoming req see
system.mem_ctrls.wrQLenPdf::42                      0                       # What write queue length does an incoming req see
system.mem_ctrls.wrQLenPdf::43                      0                       # What write queue length does an incoming req see
system.mem_ctrls.wrQLenPdf::44                      0                       # What write queue length does an incoming req see
system.mem_ctrls.wrQLenPdf::45                      0                       # What write queue length does an incoming req see
system.mem_ctrls.wrQLenPdf::46                      0                       # What write queue length does an incoming req see
system.mem_ctrls.wrQLenPdf::47                      0                       # What write queue length does an incoming req see
system.mem_ctrls.wrQLenPdf::48                      0                       # What write queue length does an incoming req see
system.mem_ctrls.wrQLenPdf::49                      0                       # What write queue length does an incoming req see
system.mem_ctrls.wrQLenPdf::50                      0                       # What write queue length does an incoming req see
system.mem_ctrls.wrQLenPdf::51                      0                       # What write queue length does an incoming req see
system.mem_ctrls.wrQLenPdf::52                      0                       # What write queue length does an incoming req see
system.mem_ctrls.wrQLenPdf::53                      0                       # What write queue length does an incoming req see
system.mem_ctrls.wrQLenPdf::54                      0                       # What write queue length does an incoming req see
system.mem_ctrls.wrQLenPdf::55                      0                       # What write queue length does an incoming req see
system.mem_ctrls.wrQLenPdf::56                      0                       # What write queue length does an incoming req see
system.mem_ctrls.wrQLenPdf::57                      0                       # What write queue length does an incoming req see
system.mem_ctrls.wrQLenPdf::58                      0                       # What write queue length does an incoming req see
system.mem_ctrls.wrQLenPdf::59                      0                       # What write queue length does an incoming req see
system.mem_ctrls.wrQLenPdf::60                      0                       # What write queue length does an incoming req see
system.mem_ctrls.wrQLenPdf::61                      0                       # What write queue length does an incoming req see
system.mem_ctrls.wrQLenPdf::62                      0                       # What write queue length does an incoming req see
system.mem_ctrls.wrQLenPdf::63                      0                       # What write queue length does an incoming req see
system.mem_ctrls.bytesPerActivate::samples         2049                       # Bytes accessed per row activation
system.mem_ctrls.bytesPerActivate::mean    240.570034                       # Bytes accessed per row activation
system.mem_ctrls.bytesPerActivate::gmean   146.105240                       # Bytes accessed per row activation
system.mem_ctrls.bytesPerActivate::stdev   280.688083                       # Bytes accessed per row activation
system.mem_ctrls.bytesPerActivate::0-127          923     45.05%     45.05% # Bytes accessed per row activation
system.mem_ctrls.bytesPerActivate::128-255          521     25.43%     70.47% # Bytes accessed per row activation
system.mem_ctrls.bytesPerActivate::256-383          196      9.57%     80.04% # Bytes accessed per row activation
system.mem_ctrls.bytesPerActivate::384-511          101      4.93%     84.97% # Bytes accessed per row activation
system.mem_ctrls.bytesPerActivate::512-639           71      3.47%     88.43% # Bytes accessed per row activation
system.mem_ctrls.bytesPerActivate::640-767           36      1.76%     90.19% # Bytes accessed per row activation
system.mem_ctrls.bytesPerActivate::768-895           29      1.42%     91.61% # Bytes accessed per row activation
system.mem_ctrls.bytesPerActivate::896-1023           29      1.42%     93.02% # Bytes accessed per row activation
system.mem_ctrls.bytesPerActivate::1024-1151          143      6.98%    100.00% # Bytes accessed per row activation
system.mem_ctrls.bytesPerActivate::total         2049                       # Bytes accessed per row activation
system.mem_ctrls.rdPerTurnAround::samples          144                       # Reads before turning the bus around for writes
system.mem_ctrls.rdPerTurnAround::mean      36.666667                       # Reads before turning the bus around for writes
system.mem_ctrls.rdPerTurnAround::gmean     31.186560                       # Reads before turning the bus around for writes
system.mem_ctrls.rdPerTurnAround::stdev     24.797079                       # Reads before turning the bus around for writes
system.mem_ctrls.rdPerTurnAround::8-15              7      4.86%      4.86% # Reads before turning the bus around for writes
system.mem_ctrls.rdPerTurnAround::16-23            44     30.56%     35.42% # Reads before turning the bus around for writes
system.mem_ctrls.rdPerTurnAround::24-31            27     18.75%     54.17% # Reads before turning the bus around for writes
system.mem_ctrls.rdPerTurnAround::32-39            20     13.89%     68.06% # Reads before turning the bus around for writes
system.mem_ctrls.rdPerTurnAround::40-47            15     10.42%     78.47% # Reads before turning the bus around for writes
system.mem_ctrls.rdPerTurnAround::48-55            11      7.64%     86.11% # Reads before turning the bus around for writes
system.mem_ctrls.rdPerTurnAround::56-63             8      5.56%     91.67% # Reads before turning the bus around for writes
system.mem_ctrls.rdPerTurnAround::64-71             3      2.08%     93.75% # Reads before turning the bus around for writes
system.mem_ctrls.rdPerTurnAround::72-79             1      0.69%     94.44% # Reads before turning the bus around for writes
system.mem_ctrls.rdPerTurnAround::80-87             1      0.69%     95.14% # Reads before turning the bus around for writes
system.mem_ctrls.rdPerTurnAround::96-103            1      0.69%     95.83% # Reads before turning the bus around for writes
system.mem_ctrls.rdPerTurnAround::104-111            2      1.39%     97.22% # Reads before turning the bus around for writes
system.mem_ctrls.rdPerTurnAround::120-127            2      1.39%     98.61% # Reads before turning the bus around for writes
system.mem_ctrls.rdPerTurnAround::136-143            1      0.69%     99.31% # Reads before turning the bus around for writes
system.mem_ctrls.rdPerTurnAround::152-159            1      0.69%    100.00% # Reads before turning the bus around for writes
system.mem_ctrls.rdPerTurnAround::total           144                       # Reads before turning the bus around for writes
system.mem_ctrls.wrPerTurnAround::samples          144                       # Writes before turning the bus around for reads
system.mem_ctrls.wrPerTurnAround::mean      16.694444                       # Writes before turning the bus around for reads
system.mem_ctrls.wrPerTurnAround::gmean     16.655338                       # Writes before turning the bus around for reads
system.mem_ctrls.wrPerTurnAround::stdev      1.184266                       # Writes before turning the bus around for reads
system.mem_ctrls.wrPerTurnAround::16              102     70.83%     70.83% # Writes before turning the bus around for reads
system.mem_ctrls.wrPerTurnAround::17                4      2.78%     73.61% # Writes before turning the bus around for reads
system.mem_ctrls.wrPerTurnAround::18               24     16.67%     90.28% # Writes before turning the bus around for reads
system.mem_ctrls.wrPerTurnAround::19                9      6.25%     96.53% # Writes before turning the bus around for reads
system.mem_ctrls.wrPerTurnAround::20                4      2.78%     99.31% # Writes before turning the bus around for reads
system.mem_ctrls.wrPerTurnAround::21                1      0.69%    100.00% # Writes before turning the bus around for reads
system.mem_ctrls.wrPerTurnAround::total           144                       # Writes before turning the bus around for reads
system.mem_ctrls.totQLat                     70977500                       # Total ticks spent queuing
system.mem_ctrls.totMemAccLat               170371250                       # Total ticks spent from burst creation until serviced by the DRAM
system.mem_ctrls.totBusLat                   26505000                       # Total ticks spent in databus transfers
system.mem_ctrls.avgQLat                     13389.45                       # Average queueing delay per DRAM burst
system.mem_ctrls.avgBusLat                    5000.00                       # Average bus latency per DRAM burst
system.mem_ctrls.avgMemAccLat                32139.45                       # Average memory access latency per DRAM burst
system.mem_ctrls.avgRdBW                       509.92                       # Average DRAM read bandwidth in MiByte/s
system.mem_ctrls.avgWrBW                       231.25                       # Average achieved write bandwidth in MiByte/s
system.mem_ctrls.avgRdBWSys                    512.61                       # Average system read bandwidth in MiByte/s
system.mem_ctrls.avgWrBWSys                    233.65                       # Average system write bandwidth in MiByte/s
system.mem_ctrls.peakBW                      12800.00                       # Theoretical peak bandwidth in MiByte/s
system.mem_ctrls.busUtil                         5.79                       # Data bus utilization in percentage
system.mem_ctrls.busUtilRead                     3.98                       # Data bus utilization in percentage for reads
system.mem_ctrls.busUtilWrite                    1.81                       # Data bus utilization in percentage for writes
system.mem_ctrls.avgRdQLen                       1.38                       # Average read queue length when enqueuing
system.mem_ctrls.avgWrQLen                      25.05                       # Average write queue length when enqueuing
system.mem_ctrls.readRowHits                     4066                       # Number of row buffer hits during reads
system.mem_ctrls.writeRowHits                    1587                       # Number of row buffer hits during writes
system.mem_ctrls.readRowHitRate                 76.70                       # Row buffer hit rate for reads
system.mem_ctrls.writeRowHitRate                65.34                       # Row buffer hit rate for writes
system.mem_ctrls.avgGap                      85706.75                       # Average gap between requests
system.mem_ctrls.pageHitRate                    73.13                       # Row buffer hit rate, read and write combined
system.mem_ctrls_0.actEnergy                  7688520                       # Energy for activate commands per rank (pJ)
system.mem_ctrls_0.preEnergy                  4195125                       # Energy for precharge commands per rank (pJ)
system.mem_ctrls_0.readEnergy                19757400                       # Energy for read commands per rank (pJ)
system.mem_ctrls_0.writeEnergy                9545040                       # Energy for write commands per rank (pJ)
system.mem_ctrls_0.refreshEnergy             43227600                       # Energy for refresh commands per rank (pJ)
system.mem_ctrls_0.actBackEnergy            373788900                       # Energy for active background per rank (pJ)
system.mem_ctrls_0.preBackEnergy             69369750                       # Energy for precharge background per rank (pJ)
system.mem_ctrls_0.totalEnergy              527572335                       # Total energy per rank (pJ)
system.mem_ctrls_0.averagePower            796.827227                       # Core power per rank (mW)
system.mem_ctrls_0.memoryStateTime::IDLE    114135500                       # Time in different power states
system.mem_ctrls_0.memoryStateTime::REF      22100000                       # Time in different power states
system.mem_ctrls_0.memoryStateTime::PRE_PDN            0                       # Time in different power states
system.mem_ctrls_0.memoryStateTime::ACT     526876500                       # Time in different power states
system.mem_ctrls_0.memoryStateTime::ACT_PDN            0                       # Time in different power states
system.mem_ctrls_1.actEnergy                  7801920                       # Energy for activate commands per rank (pJ)
system.mem_ctrls_1.preEnergy                  4257000                       # Energy for precharge commands per rank (pJ)
system.mem_ctrls_1.readEnergy                21567000                       # Energy for read commands per rank (pJ)
system.mem_ctrls_1.writeEnergy                6032880                       # Energy for write commands per rank (pJ)
system.mem_ctrls_1.refreshEnergy             43227600                       # Energy for refresh commands per rank (pJ)
system.mem_ctrls_1.actBackEnergy            397998225                       # Energy for active background per rank (pJ)
system.mem_ctrls_1.preBackEnergy             48133500                       # Energy for precharge background per rank (pJ)
system.mem_ctrls_1.totalEnergy              529018125                       # Total energy per rank (pJ)
system.mem_ctrls_1.averagePower            799.010899                       # Core power per rank (mW)
system.mem_ctrls_1.memoryStateTime::IDLE     78510750                       # Time in different power states
system.mem_ctrls_1.memoryStateTime::REF      22100000                       # Time in different power states
system.mem_ctrls_1.memoryStateTime::PRE_PDN            0                       # Time in different power states
system.mem_ctrls_1.memoryStateTime::ACT     562337250                       # Time in different power states
system.mem_ctrls_1.memoryStateTime::ACT_PDN            0                       # Time in different power states
system.cpu_voltage_domain.voltage                   1                       # Voltage in Volts
system.cpu_clk_domain.clock                       500                       # Clock period in ticks
system.cpu.dtb.fetch_hits                           0                       # ITB hits
system.cpu.dtb.fetch_misses                         0                       # ITB misses
system.cpu.dtb.fetch_acv                            0                       # ITB acv
system.cpu.dtb.fetch_accesses                       0                       # ITB accesses
system.cpu.dtb.read_hits                            0                       # DTB read hits
system.cpu.dtb.read_misses                          0                       # DTB read misses
system.cpu.dtb.read_acv                             0                       # DTB read access violations
system.cpu.dtb.read_accesses                        0                       # DTB read accesses
system.cpu.dtb.write_hits                           0                       # DTB write hits
system.cpu.dtb.write_misses                         0                       # DTB write misses
system.cpu.dtb.write_acv                            0                       # DTB write access violations
system.cpu.dtb.write_accesses                       0                       # DTB write accesses
system.cpu.dtb.data_hits                            0                       # DTB hits
system.cpu.dtb.data_misses                          0                       # DTB misses
system.cpu.dtb.data_acv                             0                       # DTB access violations
system.cpu.dtb.data_accesses                        0                       # DTB accesses
system.cpu.itb.fetch_hits                           0                       # ITB hits
system.cpu.itb.fetch_misses                         0                       # ITB misses
system.cpu.itb.fetch_acv                            0                       # ITB acv
system.cpu.itb.fetch_accesses                       0                       # ITB accesses
system.cpu.itb.read_hits                            0                       # DTB read hits
system.cpu.itb.read_misses                          0                       # DTB read misses
system.cpu.itb.read_acv                             0                       # DTB read access violations
system.cpu.itb.read_accesses                        0                       # DTB read accesses
system.cpu.itb.write_hits                           0                       # DTB write hits
system.cpu.itb.write_misses                         0                       # DTB write misses
system.cpu.itb.write_acv                            0                       # DTB write access violations
system.cpu.itb.write_accesses                       0                       # DTB write accesses
system.cpu.itb.data_hits                            0                       # DTB hits
system.cpu.itb.data_misses                          0                       # DTB misses
system.cpu.itb.data_acv                             0                       # DTB access violations
system.cpu.itb.data_accesses                        0                       # DTB accesses
system.cpu.numCycles                                0                       # number of cpu cycles simulated
system.cpu.numWorkItemsStarted                      0                       # number of work items this cpu started
system.cpu.numWorkItemsCompleted                    0                       # number of work items this cpu completed
system.cpu.committedInsts                           0                       # Number of instructions committed
system.cpu.committedOps                             0                       # Number of ops (including micro ops) committed
system.cpu.num_int_alu_accesses                     0                       # Number of integer alu accesses
system.cpu.num_fp_alu_accesses                      0                       # Number of float alu accesses
system.cpu.num_func_calls                           0                       # number of times a function call or return occured
system.cpu.num_conditional_control_insts            0                       # number of instructions that are conditional controls
system.cpu.num_int_insts                            0                       # number of integer instructions
system.cpu.num_fp_insts                             0                       # number of float instructions
system.cpu.num_int_register_reads                   0                       # number of times the integer registers were read
system.cpu.num_int_register_writes                  0                       # number of times the integer registers were written
system.cpu.num_fp_register_reads                    0                       # number of times the floating registers were read
system.cpu.num_fp_register_writes                   0                       # number of times the floating registers were written
system.cpu.num_mem_refs                             0                       # number of memory refs
system.cpu.num_load_insts                           0                       # Number of load instructions
system.cpu.num_store_insts                          0                       # Number of store instructions
system.cpu.num_idle_cycles                          0                       # Number of idle cycles
system.cpu.num_busy_cycles                          0                       # Number of busy cycles
system.cpu.not_idle_fraction                        1                       # Percentage of non-idle cycles
system.cpu.idle_fraction                            0                       # Percentage of idle cycles
system.cpu.op_class::No_OpClass                     0                       # Class of executed instruction
system.cpu.op_class::IntAlu                         0                       # Class of executed instruction
system.cpu.op_class::IntMult                        0                       # Class of executed instruction
system.cpu.op_class::IntDiv                         0                       # Class of executed instruction
system.cpu.op_class::FloatAdd                       0                       # Class of executed instruction
system.cpu.op_class::FloatCmp                       0                       # Class of executed instruction
system.cpu.op_class::FloatCvt                       0                       # Class of executed instruction
system.cpu.op_class::FloatMult                      0                       # Class of executed instruction
system.cpu.op_class::FloatDiv                       0                       # Class of executed instruction
system.cpu.op_class::FloatSqrt                      0                       # Class of executed instruction
system.cpu.op_class::SimdAdd                        0                       # Class of executed instruction
system.cpu.op_class::SimdAddAcc                     0                       # Class of executed instruction
system.cpu.op_class::SimdAlu                        0                       # Class of executed instruction
system.cpu.op_class::SimdCmp                        0                       # Class of executed instruction
system.cpu.op_class::SimdCvt                        0                       # Class of executed instruction
system.cpu.op_class::SimdMisc                       0                       # Class of executed instruction
system.cpu.op_class::SimdMult                       0                       # Class of executed instruction
system.cpu.op_class::SimdMultAcc                    0                       # Class of executed instruction
system.cpu.op_class::SimdShift                      0                       # Class of executed instruction
system.cpu.op_class::SimdShiftAcc                   0                       # Class of executed instruction
system.cpu.op_class::SimdSqrt                       0                       # Class of executed instruction
system.cpu.op_class::SimdFloatAdd                   0                       # Class of executed instruction
system.cpu.op_class::SimdFloatAlu                   0                       # Class of executed instruction
system.cpu.op_class::SimdFloatCmp                   0                       # Class of executed instruction
system.cpu.op_class::SimdFloatCvt                   0                       # Class of executed instruction
system.cpu.op_class::SimdFloatDiv                   0                       # Class of executed instruction
system.cpu.op_class::SimdFloatMisc                  0                       # Class of executed instruction
system.cpu.op_class::SimdFloatMult                  0                       # Class of executed instruction
system.cpu.op_class::SimdFloatMultAcc               0                       # Class of executed instruction
system.cpu.op_class::SimdFloatSqrt                  0                       # Class of executed instruction
system.cpu.op_class::MemRead                        0                       # Class of executed instruction
system.cpu.op_class::MemWrite                       0                       # Class of executed instruction
system.cpu.op_class::IprAccess                      0                       # Class of executed instruction
system.cpu.op_class::InstPrefetch                   0                       # Class of executed instruction
system.cpu.op_class::total                          0                       # Class of executed instruction
system.cpu.kern.inst.arm                            0                       # number of arm instructions executed
system.cpu.kern.inst.quiesce                        0                       # number of quiesce instructions executed
system.cpu.kern.inst.hwrei                       2781                       # number of hwrei instructions executed
system.cpu.kern.ipl_count::0                      635     49.15%     49.15% # number of times we switched to this ipl
system.cpu.kern.ipl_count::22                       1      0.08%     49.23% # number of times we switched to this ipl
system.cpu.kern.ipl_count::31                     656     50.77%    100.00% # number of times we switched to this ipl
system.cpu.kern.ipl_count::total                 1292                       # number of times we switched to this ipl
system.cpu.kern.ipl_good::0                       633     49.96%     49.96% # number of times we switched to this ipl from a different ipl
system.cpu.kern.ipl_good::22                        1      0.08%     50.04% # number of times we switched to this ipl from a different ipl
system.cpu.kern.ipl_good::31                      633     49.96%    100.00% # number of times we switched to this ipl from a different ipl
system.cpu.kern.ipl_good::total                  1267                       # number of times we switched to this ipl from a different ipl
system.cpu.kern.ipl_ticks::0                600625500     90.35%     90.35% # number of cycles we spent at this ipl
system.cpu.kern.ipl_ticks::22                 1459500      0.22%     90.57% # number of cycles we spent at this ipl
system.cpu.kern.ipl_ticks::31                62722000      9.43%    100.00% # number of cycles we spent at this ipl
system.cpu.kern.ipl_ticks::total            664807000                       # number of cycles we spent at this ipl
system.cpu.kern.ipl_used::0                  0.996850                       # fraction of swpipl calls that actually changed the ipl
system.cpu.kern.ipl_used::22                        1                       # fraction of swpipl calls that actually changed the ipl
system.cpu.kern.ipl_used::31                 0.964939                       # fraction of swpipl calls that actually changed the ipl
system.cpu.kern.ipl_used::total              0.980650                       # fraction of swpipl calls that actually changed the ipl
system.cpu.kern.syscall::2                          1      5.56%      5.56% # number of syscalls executed
system.cpu.kern.syscall::3                          2     11.11%     16.67% # number of syscalls executed
system.cpu.kern.syscall::6                          2     11.11%     27.78% # number of syscalls executed
system.cpu.kern.syscall::17                         1      5.56%     33.33% # number of syscalls executed
system.cpu.kern.syscall::19                         1      5.56%     38.89% # number of syscalls executed
system.cpu.kern.syscall::33                         1      5.56%     44.44% # number of syscalls executed
system.cpu.kern.syscall::45                         3     16.67%     61.11% # number of syscalls executed
system.cpu.kern.syscall::48                         1      5.56%     66.67% # number of syscalls executed
system.cpu.kern.syscall::59                         1      5.56%     72.22% # number of syscalls executed
system.cpu.kern.syscall::71                         4     22.22%     94.44% # number of syscalls executed
system.cpu.kern.syscall::74                         1      5.56%    100.00% # number of syscalls executed
system.cpu.kern.syscall::total                     18                       # number of syscalls executed
system.cpu.kern.callpal::swpctx                   118      8.10%      8.10% # number of callpals executed
system.cpu.kern.callpal::tbi                        6      0.41%      8.51% # number of callpals executed
system.cpu.kern.callpal::swpipl                  1107     75.98%     84.49% # number of callpals executed
system.cpu.kern.callpal::rdps                       3      0.21%     84.69% # number of callpals executed
system.cpu.kern.callpal::wrusp                      1      0.07%     84.76% # number of callpals executed
system.cpu.kern.callpal::rdusp                      1      0.07%     84.83% # number of callpals executed
system.cpu.kern.callpal::rti                      184     12.63%     97.46% # number of callpals executed
system.cpu.kern.callpal::callsys                   33      2.26%     99.73% # number of callpals executed
system.cpu.kern.callpal::imb                        4      0.27%    100.00% # number of callpals executed
system.cpu.kern.callpal::total                   1457                       # number of callpals executed
system.cpu.kern.mode_switch::kernel               302                       # number of protection mode switches
system.cpu.kern.mode_switch::user                 181                       # number of protection mode switches
system.cpu.kern.mode_switch::idle                   0                       # number of protection mode switches
system.cpu.kern.mode_good::kernel                 181                      
system.cpu.kern.mode_good::user                   181                      
system.cpu.kern.mode_good::idle                     0                      
system.cpu.kern.mode_switch_good::kernel     0.599338                       # fraction of useful protection mode switches
system.cpu.kern.mode_switch_good::user              1                       # fraction of useful protection mode switches
system.cpu.kern.mode_switch_good::idle            nan                       # fraction of useful protection mode switches
system.cpu.kern.mode_switch_good::total      0.749482                       # fraction of useful protection mode switches
system.cpu.kern.mode_ticks::kernel          432849000     65.11%     65.11% # number of ticks spent at the given mode
system.cpu.kern.mode_ticks::user            231951000     34.89%    100.00% # number of ticks spent at the given mode
system.cpu.kern.mode_ticks::idle                    0      0.00%    100.00% # number of ticks spent at the given mode
system.cpu.kern.swap_context                      118                       # number of times the context was actually changed
system.cpu.dcache.tags.replacements             18308                       # number of replacements
system.cpu.dcache.tags.tagsinuse                  512                       # Cycle average of tags in use
system.cpu.dcache.tags.total_refs              199196                       # Total number of references to valid blocks.
system.cpu.dcache.tags.sampled_refs             18308                       # Sample count of references to valid blocks.
system.cpu.dcache.tags.avg_refs             10.880271                       # Average number of references to valid blocks.
system.cpu.dcache.tags.warmup_cycle                 0                       # Cycle when the warmup percentage was hit.
system.cpu.dcache.tags.occ_blocks::cpu.data    25.913409                       # Average occupied blocks per requestor
system.cpu.dcache.tags.occ_blocks::switch_cpus.data   486.086591                       # Average occupied blocks per requestor
system.cpu.dcache.tags.occ_percent::cpu.data     0.050612                       # Average percentage of cache occupancy
system.cpu.dcache.tags.occ_percent::switch_cpus.data     0.949388                       # Average percentage of cache occupancy
system.cpu.dcache.tags.occ_percent::total            1                       # Average percentage of cache occupancy
system.cpu.dcache.tags.occ_task_id_blocks::1024          512                       # Occupied blocks per task id
system.cpu.dcache.tags.age_task_id_blocks_1024::0          338                       # Occupied blocks per task id
system.cpu.dcache.tags.age_task_id_blocks_1024::1          173                       # Occupied blocks per task id
system.cpu.dcache.tags.age_task_id_blocks_1024::2            1                       # Occupied blocks per task id
system.cpu.dcache.tags.occ_task_id_percent::1024            1                       # Percentage of cache occupancy per task id
system.cpu.dcache.tags.tag_accesses           1180092                       # Number of tag accesses
system.cpu.dcache.tags.data_accesses          1180092                       # Number of data accesses
system.cpu.dcache.ReadReq_hits::switch_cpus.data       132764                       # number of ReadReq hits
system.cpu.dcache.ReadReq_hits::total          132764                       # number of ReadReq hits
system.cpu.dcache.WriteReq_hits::switch_cpus.data        58986                       # number of WriteReq hits
system.cpu.dcache.WriteReq_hits::total          58986                       # number of WriteReq hits
system.cpu.dcache.LoadLockedReq_hits::switch_cpus.data         2244                       # number of LoadLockedReq hits
system.cpu.dcache.LoadLockedReq_hits::total         2244                       # number of LoadLockedReq hits
system.cpu.dcache.StoreCondReq_hits::switch_cpus.data         2378                       # number of StoreCondReq hits
system.cpu.dcache.StoreCondReq_hits::total         2378                       # number of StoreCondReq hits
system.cpu.dcache.demand_hits::switch_cpus.data       191750                       # number of demand (read+write) hits
system.cpu.dcache.demand_hits::total           191750                       # number of demand (read+write) hits
system.cpu.dcache.overall_hits::switch_cpus.data       191750                       # number of overall hits
system.cpu.dcache.overall_hits::total          191750                       # number of overall hits
system.cpu.dcache.ReadReq_misses::switch_cpus.data        26434                       # number of ReadReq misses
system.cpu.dcache.ReadReq_misses::total         26434                       # number of ReadReq misses
system.cpu.dcache.WriteReq_misses::switch_cpus.data        67245                       # number of WriteReq misses
system.cpu.dcache.WriteReq_misses::total        67245                       # number of WriteReq misses
system.cpu.dcache.LoadLockedReq_misses::switch_cpus.data          395                       # number of LoadLockedReq misses
system.cpu.dcache.LoadLockedReq_misses::total          395                       # number of LoadLockedReq misses
system.cpu.dcache.demand_misses::switch_cpus.data        93679                       # number of demand (read+write) misses
system.cpu.dcache.demand_misses::total          93679                       # number of demand (read+write) misses
system.cpu.dcache.overall_misses::switch_cpus.data        93679                       # number of overall misses
system.cpu.dcache.overall_misses::total         93679                       # number of overall misses
system.cpu.dcache.ReadReq_miss_latency::switch_cpus.data    682138497                       # number of ReadReq miss cycles
system.cpu.dcache.ReadReq_miss_latency::total    682138497                       # number of ReadReq miss cycles
system.cpu.dcache.WriteReq_miss_latency::switch_cpus.data   1818721987                       # number of WriteReq miss cycles
system.cpu.dcache.WriteReq_miss_latency::total   1818721987                       # number of WriteReq miss cycles
system.cpu.dcache.LoadLockedReq_miss_latency::switch_cpus.data      6931000                       # number of LoadLockedReq miss cycles
system.cpu.dcache.LoadLockedReq_miss_latency::total      6931000                       # number of LoadLockedReq miss cycles
system.cpu.dcache.demand_miss_latency::switch_cpus.data   2500860484                       # number of demand (read+write) miss cycles
system.cpu.dcache.demand_miss_latency::total   2500860484                       # number of demand (read+write) miss cycles
system.cpu.dcache.overall_miss_latency::switch_cpus.data   2500860484                       # number of overall miss cycles
system.cpu.dcache.overall_miss_latency::total   2500860484                       # number of overall miss cycles
system.cpu.dcache.ReadReq_accesses::switch_cpus.data       159198                       # number of ReadReq accesses(hits+misses)
system.cpu.dcache.ReadReq_accesses::total       159198                       # number of ReadReq accesses(hits+misses)
system.cpu.dcache.WriteReq_accesses::switch_cpus.data       126231                       # number of WriteReq accesses(hits+misses)
system.cpu.dcache.WriteReq_accesses::total       126231                       # number of WriteReq accesses(hits+misses)
system.cpu.dcache.LoadLockedReq_accesses::switch_cpus.data         2639                       # number of LoadLockedReq accesses(hits+misses)
system.cpu.dcache.LoadLockedReq_accesses::total         2639                       # number of LoadLockedReq accesses(hits+misses)
system.cpu.dcache.StoreCondReq_accesses::switch_cpus.data         2378                       # number of StoreCondReq accesses(hits+misses)
system.cpu.dcache.StoreCondReq_accesses::total         2378                       # number of StoreCondReq accesses(hits+misses)
system.cpu.dcache.demand_accesses::switch_cpus.data       285429                       # number of demand (read+write) accesses
system.cpu.dcache.demand_accesses::total       285429                       # number of demand (read+write) accesses
system.cpu.dcache.overall_accesses::switch_cpus.data       285429                       # number of overall (read+write) accesses
system.cpu.dcache.overall_accesses::total       285429                       # number of overall (read+write) accesses
system.cpu.dcache.ReadReq_miss_rate::switch_cpus.data     0.166045                       # miss rate for ReadReq accesses
system.cpu.dcache.ReadReq_miss_rate::total     0.166045                       # miss rate for ReadReq accesses
system.cpu.dcache.WriteReq_miss_rate::switch_cpus.data     0.532714                       # miss rate for WriteReq accesses
system.cpu.dcache.WriteReq_miss_rate::total     0.532714                       # miss rate for WriteReq accesses
system.cpu.dcache.LoadLockedReq_miss_rate::switch_cpus.data     0.149678                       # miss rate for LoadLockedReq accesses
system.cpu.dcache.LoadLockedReq_miss_rate::total     0.149678                       # miss rate for LoadLockedReq accesses
system.cpu.dcache.demand_miss_rate::switch_cpus.data     0.328204                       # miss rate for demand accesses
system.cpu.dcache.demand_miss_rate::total     0.328204                       # miss rate for demand accesses
system.cpu.dcache.overall_miss_rate::switch_cpus.data     0.328204                       # miss rate for overall accesses
system.cpu.dcache.overall_miss_rate::total     0.328204                       # miss rate for overall accesses
system.cpu.dcache.ReadReq_avg_miss_latency::switch_cpus.data 25805.345275                       # average ReadReq miss latency
system.cpu.dcache.ReadReq_avg_miss_latency::total 25805.345275                       # average ReadReq miss latency
system.cpu.dcache.WriteReq_avg_miss_latency::switch_cpus.data 27046.203985                       # average WriteReq miss latency
system.cpu.dcache.WriteReq_avg_miss_latency::total 27046.203985                       # average WriteReq miss latency
system.cpu.dcache.LoadLockedReq_avg_miss_latency::switch_cpus.data 17546.835443                       # average LoadLockedReq miss latency
system.cpu.dcache.LoadLockedReq_avg_miss_latency::total 17546.835443                       # average LoadLockedReq miss latency
system.cpu.dcache.demand_avg_miss_latency::switch_cpus.data 26696.062981                       # average overall miss latency
system.cpu.dcache.demand_avg_miss_latency::total 26696.062981                       # average overall miss latency
system.cpu.dcache.overall_avg_miss_latency::switch_cpus.data 26696.062981                       # average overall miss latency
system.cpu.dcache.overall_avg_miss_latency::total 26696.062981                       # average overall miss latency
system.cpu.dcache.blocked_cycles::no_mshrs        72969                       # number of cycles access was blocked
system.cpu.dcache.blocked_cycles::no_targets            8                       # number of cycles access was blocked
system.cpu.dcache.blocked::no_mshrs              4579                       # number of cycles access was blocked
system.cpu.dcache.blocked::no_targets               1                       # number of cycles access was blocked
system.cpu.dcache.avg_blocked_cycles::no_mshrs    15.935575                       # average number of cycles each access was blocked
system.cpu.dcache.avg_blocked_cycles::no_targets            8                       # average number of cycles each access was blocked
system.cpu.dcache.fast_writes                       0                       # number of fast writes performed
system.cpu.dcache.cache_copies                      0                       # number of cache copies performed
system.cpu.dcache.writebacks::writebacks        13045                       # number of writebacks
system.cpu.dcache.writebacks::total             13045                       # number of writebacks
system.cpu.dcache.ReadReq_mshr_hits::switch_cpus.data        17435                       # number of ReadReq MSHR hits
system.cpu.dcache.ReadReq_mshr_hits::total        17435                       # number of ReadReq MSHR hits
system.cpu.dcache.WriteReq_mshr_hits::switch_cpus.data        58157                       # number of WriteReq MSHR hits
system.cpu.dcache.WriteReq_mshr_hits::total        58157                       # number of WriteReq MSHR hits
system.cpu.dcache.LoadLockedReq_mshr_hits::switch_cpus.data          172                       # number of LoadLockedReq MSHR hits
system.cpu.dcache.LoadLockedReq_mshr_hits::total          172                       # number of LoadLockedReq MSHR hits
system.cpu.dcache.demand_mshr_hits::switch_cpus.data        75592                       # number of demand (read+write) MSHR hits
system.cpu.dcache.demand_mshr_hits::total        75592                       # number of demand (read+write) MSHR hits
system.cpu.dcache.overall_mshr_hits::switch_cpus.data        75592                       # number of overall MSHR hits
system.cpu.dcache.overall_mshr_hits::total        75592                       # number of overall MSHR hits
system.cpu.dcache.ReadReq_mshr_misses::switch_cpus.data         8999                       # number of ReadReq MSHR misses
system.cpu.dcache.ReadReq_mshr_misses::total         8999                       # number of ReadReq MSHR misses
system.cpu.dcache.WriteReq_mshr_misses::switch_cpus.data         9088                       # number of WriteReq MSHR misses
system.cpu.dcache.WriteReq_mshr_misses::total         9088                       # number of WriteReq MSHR misses
system.cpu.dcache.LoadLockedReq_mshr_misses::switch_cpus.data          223                       # number of LoadLockedReq MSHR misses
system.cpu.dcache.LoadLockedReq_mshr_misses::total          223                       # number of LoadLockedReq MSHR misses
system.cpu.dcache.demand_mshr_misses::switch_cpus.data        18087                       # number of demand (read+write) MSHR misses
system.cpu.dcache.demand_mshr_misses::total        18087                       # number of demand (read+write) MSHR misses
system.cpu.dcache.overall_mshr_misses::switch_cpus.data        18087                       # number of overall MSHR misses
system.cpu.dcache.overall_mshr_misses::total        18087                       # number of overall MSHR misses
system.cpu.dcache.WriteReq_mshr_uncacheable::switch_cpus.data            1                       # number of WriteReq MSHR uncacheable
system.cpu.dcache.WriteReq_mshr_uncacheable::total            1                       # number of WriteReq MSHR uncacheable
system.cpu.dcache.overall_mshr_uncacheable_misses::switch_cpus.data            1                       # number of overall MSHR uncacheable misses
system.cpu.dcache.overall_mshr_uncacheable_misses::total            1                       # number of overall MSHR uncacheable misses
system.cpu.dcache.ReadReq_mshr_miss_latency::switch_cpus.data    220318503                       # number of ReadReq MSHR miss cycles
system.cpu.dcache.ReadReq_mshr_miss_latency::total    220318503                       # number of ReadReq MSHR miss cycles
system.cpu.dcache.WriteReq_mshr_miss_latency::switch_cpus.data    249112061                       # number of WriteReq MSHR miss cycles
system.cpu.dcache.WriteReq_mshr_miss_latency::total    249112061                       # number of WriteReq MSHR miss cycles
system.cpu.dcache.LoadLockedReq_mshr_miss_latency::switch_cpus.data      4049000                       # number of LoadLockedReq MSHR miss cycles
system.cpu.dcache.LoadLockedReq_mshr_miss_latency::total      4049000                       # number of LoadLockedReq MSHR miss cycles
system.cpu.dcache.demand_mshr_miss_latency::switch_cpus.data    469430564                       # number of demand (read+write) MSHR miss cycles
system.cpu.dcache.demand_mshr_miss_latency::total    469430564                       # number of demand (read+write) MSHR miss cycles
system.cpu.dcache.overall_mshr_miss_latency::switch_cpus.data    469430564                       # number of overall MSHR miss cycles
system.cpu.dcache.overall_mshr_miss_latency::total    469430564                       # number of overall MSHR miss cycles
system.cpu.dcache.WriteReq_mshr_uncacheable_latency::switch_cpus.data       227500                       # number of WriteReq MSHR uncacheable cycles
system.cpu.dcache.WriteReq_mshr_uncacheable_latency::total       227500                       # number of WriteReq MSHR uncacheable cycles
system.cpu.dcache.overall_mshr_uncacheable_latency::switch_cpus.data       227500                       # number of overall MSHR uncacheable cycles
system.cpu.dcache.overall_mshr_uncacheable_latency::total       227500                       # number of overall MSHR uncacheable cycles
system.cpu.dcache.ReadReq_mshr_miss_rate::switch_cpus.data     0.056527                       # mshr miss rate for ReadReq accesses
system.cpu.dcache.ReadReq_mshr_miss_rate::total     0.056527                       # mshr miss rate for ReadReq accesses
system.cpu.dcache.WriteReq_mshr_miss_rate::switch_cpus.data     0.071995                       # mshr miss rate for WriteReq accesses
system.cpu.dcache.WriteReq_mshr_miss_rate::total     0.071995                       # mshr miss rate for WriteReq accesses
system.cpu.dcache.LoadLockedReq_mshr_miss_rate::switch_cpus.data     0.084502                       # mshr miss rate for LoadLockedReq accesses
system.cpu.dcache.LoadLockedReq_mshr_miss_rate::total     0.084502                       # mshr miss rate for LoadLockedReq accesses
system.cpu.dcache.demand_mshr_miss_rate::switch_cpus.data     0.063368                       # mshr miss rate for demand accesses
system.cpu.dcache.demand_mshr_miss_rate::total     0.063368                       # mshr miss rate for demand accesses
system.cpu.dcache.overall_mshr_miss_rate::switch_cpus.data     0.063368                       # mshr miss rate for overall accesses
system.cpu.dcache.overall_mshr_miss_rate::total     0.063368                       # mshr miss rate for overall accesses
system.cpu.dcache.ReadReq_avg_mshr_miss_latency::switch_cpus.data 24482.553950                       # average ReadReq mshr miss latency
system.cpu.dcache.ReadReq_avg_mshr_miss_latency::total 24482.553950                       # average ReadReq mshr miss latency
system.cpu.dcache.WriteReq_avg_mshr_miss_latency::switch_cpus.data 27411.098261                       # average WriteReq mshr miss latency
system.cpu.dcache.WriteReq_avg_mshr_miss_latency::total 27411.098261                       # average WriteReq mshr miss latency
system.cpu.dcache.LoadLockedReq_avg_mshr_miss_latency::switch_cpus.data 18156.950673                       # average LoadLockedReq mshr miss latency
system.cpu.dcache.LoadLockedReq_avg_mshr_miss_latency::total 18156.950673                       # average LoadLockedReq mshr miss latency
system.cpu.dcache.demand_avg_mshr_miss_latency::switch_cpus.data 25954.031293                       # average overall mshr miss latency
system.cpu.dcache.demand_avg_mshr_miss_latency::total 25954.031293                       # average overall mshr miss latency
system.cpu.dcache.overall_avg_mshr_miss_latency::switch_cpus.data 25954.031293                       # average overall mshr miss latency
system.cpu.dcache.overall_avg_mshr_miss_latency::total 25954.031293                       # average overall mshr miss latency
system.cpu.dcache.WriteReq_avg_mshr_uncacheable_latency::switch_cpus.data       227500                       # average WriteReq mshr uncacheable latency
system.cpu.dcache.WriteReq_avg_mshr_uncacheable_latency::total       227500                       # average WriteReq mshr uncacheable latency
system.cpu.dcache.overall_avg_mshr_uncacheable_latency::switch_cpus.data       227500                       # average overall mshr uncacheable latency
system.cpu.dcache.overall_avg_mshr_uncacheable_latency::total       227500                       # average overall mshr uncacheable latency
system.cpu.dcache.no_allocate_misses                0                       # Number of misses that were no-allocate
system.cpu.icache.tags.replacements             10388                       # number of replacements
system.cpu.icache.tags.tagsinuse           511.870885                       # Cycle average of tags in use
system.cpu.icache.tags.total_refs              362722                       # Total number of references to valid blocks.
system.cpu.icache.tags.sampled_refs             10388                       # Sample count of references to valid blocks.
system.cpu.icache.tags.avg_refs             34.917405                       # Average number of references to valid blocks.
system.cpu.icache.tags.warmup_cycle                 0                       # Cycle when the warmup percentage was hit.
system.cpu.icache.tags.occ_blocks::cpu.inst    22.795485                       # Average occupied blocks per requestor
system.cpu.icache.tags.occ_blocks::switch_cpus.inst   489.075400                       # Average occupied blocks per requestor
system.cpu.icache.tags.occ_percent::cpu.inst     0.044522                       # Average percentage of cache occupancy
system.cpu.icache.tags.occ_percent::switch_cpus.inst     0.955225                       # Average percentage of cache occupancy
system.cpu.icache.tags.occ_percent::total     0.999748                       # Average percentage of cache occupancy
system.cpu.icache.tags.occ_task_id_blocks::1024          511                       # Occupied blocks per task id
system.cpu.icache.tags.age_task_id_blocks_1024::0           66                       # Occupied blocks per task id
system.cpu.icache.tags.age_task_id_blocks_1024::1          121                       # Occupied blocks per task id
system.cpu.icache.tags.age_task_id_blocks_1024::2          324                       # Occupied blocks per task id
system.cpu.icache.tags.occ_task_id_percent::1024     0.998047                       # Percentage of cache occupancy per task id
system.cpu.icache.tags.tag_accesses            333187                       # Number of tag accesses
system.cpu.icache.tags.data_accesses           333187                       # Number of data accesses
system.cpu.icache.ReadReq_hits::switch_cpus.inst       149451                       # number of ReadReq hits
system.cpu.icache.ReadReq_hits::total          149451                       # number of ReadReq hits
system.cpu.icache.demand_hits::switch_cpus.inst       149451                       # number of demand (read+write) hits
system.cpu.icache.demand_hits::total           149451                       # number of demand (read+write) hits
system.cpu.icache.overall_hits::switch_cpus.inst       149451                       # number of overall hits
system.cpu.icache.overall_hits::total          149451                       # number of overall hits
system.cpu.icache.ReadReq_misses::switch_cpus.inst        11948                       # number of ReadReq misses
system.cpu.icache.ReadReq_misses::total         11948                       # number of ReadReq misses
system.cpu.icache.demand_misses::switch_cpus.inst        11948                       # number of demand (read+write) misses
system.cpu.icache.demand_misses::total          11948                       # number of demand (read+write) misses
system.cpu.icache.overall_misses::switch_cpus.inst        11948                       # number of overall misses
system.cpu.icache.overall_misses::total         11948                       # number of overall misses
system.cpu.icache.ReadReq_miss_latency::switch_cpus.inst    304441212                       # number of ReadReq miss cycles
system.cpu.icache.ReadReq_miss_latency::total    304441212                       # number of ReadReq miss cycles
system.cpu.icache.demand_miss_latency::switch_cpus.inst    304441212                       # number of demand (read+write) miss cycles
system.cpu.icache.demand_miss_latency::total    304441212                       # number of demand (read+write) miss cycles
system.cpu.icache.overall_miss_latency::switch_cpus.inst    304441212                       # number of overall miss cycles
system.cpu.icache.overall_miss_latency::total    304441212                       # number of overall miss cycles
system.cpu.icache.ReadReq_accesses::switch_cpus.inst       161399                       # number of ReadReq accesses(hits+misses)
system.cpu.icache.ReadReq_accesses::total       161399                       # number of ReadReq accesses(hits+misses)
system.cpu.icache.demand_accesses::switch_cpus.inst       161399                       # number of demand (read+write) accesses
system.cpu.icache.demand_accesses::total       161399                       # number of demand (read+write) accesses
system.cpu.icache.overall_accesses::switch_cpus.inst       161399                       # number of overall (read+write) accesses
system.cpu.icache.overall_accesses::total       161399                       # number of overall (read+write) accesses
system.cpu.icache.ReadReq_miss_rate::switch_cpus.inst     0.074028                       # miss rate for ReadReq accesses
system.cpu.icache.ReadReq_miss_rate::total     0.074028                       # miss rate for ReadReq accesses
system.cpu.icache.demand_miss_rate::switch_cpus.inst     0.074028                       # miss rate for demand accesses
system.cpu.icache.demand_miss_rate::total     0.074028                       # miss rate for demand accesses
system.cpu.icache.overall_miss_rate::switch_cpus.inst     0.074028                       # miss rate for overall accesses
system.cpu.icache.overall_miss_rate::total     0.074028                       # miss rate for overall accesses
system.cpu.icache.ReadReq_avg_miss_latency::switch_cpus.inst 25480.516572                       # average ReadReq miss latency
system.cpu.icache.ReadReq_avg_miss_latency::total 25480.516572                       # average ReadReq miss latency
system.cpu.icache.demand_avg_miss_latency::switch_cpus.inst 25480.516572                       # average overall miss latency
system.cpu.icache.demand_avg_miss_latency::total 25480.516572                       # average overall miss latency
system.cpu.icache.overall_avg_miss_latency::switch_cpus.inst 25480.516572                       # average overall miss latency
system.cpu.icache.overall_avg_miss_latency::total 25480.516572                       # average overall miss latency
system.cpu.icache.blocked_cycles::no_mshrs         1768                       # number of cycles access was blocked
system.cpu.icache.blocked_cycles::no_targets            0                       # number of cycles access was blocked
system.cpu.icache.blocked::no_mshrs                69                       # number of cycles access was blocked
system.cpu.icache.blocked::no_targets               0                       # number of cycles access was blocked
system.cpu.icache.avg_blocked_cycles::no_mshrs    25.623188                       # average number of cycles each access was blocked
system.cpu.icache.avg_blocked_cycles::no_targets          nan                       # average number of cycles each access was blocked
system.cpu.icache.fast_writes                       0                       # number of fast writes performed
system.cpu.icache.cache_copies                      0                       # number of cache copies performed
system.cpu.icache.ReadReq_mshr_hits::switch_cpus.inst         1559                       # number of ReadReq MSHR hits
system.cpu.icache.ReadReq_mshr_hits::total         1559                       # number of ReadReq MSHR hits
system.cpu.icache.demand_mshr_hits::switch_cpus.inst         1559                       # number of demand (read+write) MSHR hits
system.cpu.icache.demand_mshr_hits::total         1559                       # number of demand (read+write) MSHR hits
system.cpu.icache.overall_mshr_hits::switch_cpus.inst         1559                       # number of overall MSHR hits
system.cpu.icache.overall_mshr_hits::total         1559                       # number of overall MSHR hits
system.cpu.icache.ReadReq_mshr_misses::switch_cpus.inst        10389                       # number of ReadReq MSHR misses
system.cpu.icache.ReadReq_mshr_misses::total        10389                       # number of ReadReq MSHR misses
system.cpu.icache.demand_mshr_misses::switch_cpus.inst        10389                       # number of demand (read+write) MSHR misses
system.cpu.icache.demand_mshr_misses::total        10389                       # number of demand (read+write) MSHR misses
system.cpu.icache.overall_mshr_misses::switch_cpus.inst        10389                       # number of overall MSHR misses
system.cpu.icache.overall_mshr_misses::total        10389                       # number of overall MSHR misses
system.cpu.icache.ReadReq_mshr_miss_latency::switch_cpus.inst    242783521                       # number of ReadReq MSHR miss cycles
system.cpu.icache.ReadReq_mshr_miss_latency::total    242783521                       # number of ReadReq MSHR miss cycles
system.cpu.icache.demand_mshr_miss_latency::switch_cpus.inst    242783521                       # number of demand (read+write) MSHR miss cycles
system.cpu.icache.demand_mshr_miss_latency::total    242783521                       # number of demand (read+write) MSHR miss cycles
system.cpu.icache.overall_mshr_miss_latency::switch_cpus.inst    242783521                       # number of overall MSHR miss cycles
system.cpu.icache.overall_mshr_miss_latency::total    242783521                       # number of overall MSHR miss cycles
system.cpu.icache.ReadReq_mshr_miss_rate::switch_cpus.inst     0.064368                       # mshr miss rate for ReadReq accesses
system.cpu.icache.ReadReq_mshr_miss_rate::total     0.064368                       # mshr miss rate for ReadReq accesses
system.cpu.icache.demand_mshr_miss_rate::switch_cpus.inst     0.064368                       # mshr miss rate for demand accesses
system.cpu.icache.demand_mshr_miss_rate::total     0.064368                       # mshr miss rate for demand accesses
system.cpu.icache.overall_mshr_miss_rate::switch_cpus.inst     0.064368                       # mshr miss rate for overall accesses
system.cpu.icache.overall_mshr_miss_rate::total     0.064368                       # mshr miss rate for overall accesses
system.cpu.icache.ReadReq_avg_mshr_miss_latency::switch_cpus.inst 23369.286842                       # average ReadReq mshr miss latency
system.cpu.icache.ReadReq_avg_mshr_miss_latency::total 23369.286842                       # average ReadReq mshr miss latency
system.cpu.icache.demand_avg_mshr_miss_latency::switch_cpus.inst 23369.286842                       # average overall mshr miss latency
[...]
system.switch_cpus.iew.wb_penalized_rate            0                       # fraction of instructions written-back that wrote to 'other' IQ
system.switch_cpus.commit.commitSquashedInsts   1535326542                       # The number of squashed insts skipped by commit
system.switch_cpus.commit.commitNonSpecStalls     38282132                       # The number of times commit has been forced to stall to communicate backwards
system.switch_cpus.commit.branchMispredicts     47935351                       # The number of times a branch was mispredicted
system.switch_cpus.commit.committed_per_cycle::samples   4034075003                       # Number of insts commited each cycle
system.switch_cpus.commit.committed_per_cycle::mean     1.285863                       # Number of insts commited each cycle
system.switch_cpus.commit.committed_per_cycle::stdev     2.402445                       # Number of insts commited each cycle
system.switch_cpus.commit.committed_per_cycle::underflows            0      0.00%      0.00% # Number of insts commited each cycle
system.switch_cpus.commit.committed_per_cycle::0   2596906202     64.37%     64.37% # Number of insts commited each cycle
system.switch_cpus.commit.committed_per_cycle::1    542811155     13.46%     77.83% # Number of insts commited each cycle
system.switch_cpus.commit.committed_per_cycle::2    179878366      4.46%     82.29% # Number of insts commited each cycle
system.switch_cpus.commit.committed_per_cycle::3    136867123      3.39%     85.68% # Number of insts commited each cycle
system.switch_cpus.commit.committed_per_cycle::4     97927662      2.43%     88.11% # Number of insts commited each cycle
system.switch_cpus.commit.committed_per_cycle::5     72658908      1.80%     89.91% # Number of insts commited each cycle
system.switch_cpus.commit.committed_per_cycle::6     41662907      1.03%     90.94% # Number of insts commited each cycle
system.switch_cpus.commit.committed_per_cycle::7     53784050      1.33%     92.28% # Number of insts commited each cycle
system.switch_cpus.commit.committed_per_cycle::8    311578630      7.72%    100.00% # Number of insts commited each cycle
system.switch_cpus.commit.committed_per_cycle::overflows            0      0.00%    100.00% # Number of insts commited each cycle
system.switch_cpus.commit.committed_per_cycle::min_value            0                       # Number of insts commited each cycle
system.switch_cpus.commit.committed_per_cycle::max_value            8                       # Number of insts commited each cycle
system.switch_cpus.commit.committed_per_cycle::total   4034075003                       # Number of insts commited each cycle
system.switch_cpus.commit.committedInsts   5187269276                       # Number of instructions committed
system.switch_cpus.commit.committedOps     5187269276                       # Number of ops (including micro ops) committed
system.switch_cpus.commit.swp_count                 0                       # Number of s/w prefetches committed
system.switch_cpus.commit.refs             1698289115                       # Number of memory references committed
system.switch_cpus.commit.loads            1109291329                       # Number of loads committed
system.switch_cpus.commit.membars            16802599                       # Number of memory barriers committed
system.switch_cpus.commit.branches          844387034                       # Number of branches committed
system.switch_cpus.commit.fp_insts          267490281                       # Number of committed floating point instructions.
system.switch_cpus.commit.int_insts        4731775488                       # Number of committed integer instructions.
system.switch_cpus.commit.function_calls     66017449                       # Number of function calls committed.
system.switch_cpus.commit.op_class_0::No_OpClass    188712939      3.64%      3.64% # Class of committed instruction
system.switch_cpus.commit.op_class_0::IntAlu   3015487040     58.13%     61.77% # Class of committed instruction
system.switch_cpus.commit.op_class_0::IntMult     54886470      1.06%     62.83% # Class of committed instruction
system.switch_cpus.commit.op_class_0::IntDiv            0      0.00%     62.83% # Class of committed instruction
system.switch_cpus.commit.op_class_0::FloatAdd    121687363      2.35%     65.17% # Class of committed instruction
system.switch_cpus.commit.op_class_0::FloatCmp     47040454      0.91%     66.08% # Class of committed instruction
system.switch_cpus.commit.op_class_0::FloatCvt          267      0.00%     66.08% # Class of committed instruction
system.switch_cpus.commit.op_class_0::FloatMult     24039648      0.46%     66.54% # Class of committed instruction
system.switch_cpus.commit.op_class_0::FloatDiv      1516440      0.03%     66.57% # Class of committed instruction
system.switch_cpus.commit.op_class_0::FloatSqrt      1183203      0.02%     66.60% # Class of committed instruction
system.switch_cpus.commit.op_class_0::SimdAdd            0      0.00%     66.60% # Class of committed instruction
system.switch_cpus.commit.op_class_0::SimdAddAcc            0      0.00%     66.60% # Class of committed instruction
system.switch_cpus.commit.op_class_0::SimdAlu            0      0.00%     66.60% # Class of committed instruction
system.switch_cpus.commit.op_class_0::SimdCmp            0      0.00%     66.60% # Class of committed instruction
system.switch_cpus.commit.op_class_0::SimdCvt            0      0.00%     66.60% # Class of committed instruction
system.switch_cpus.commit.op_class_0::SimdMisc            0      0.00%     66.60% # Class of committed instruction
system.switch_cpus.commit.op_class_0::SimdMult            0      0.00%     66.60% # Class of committed instruction
system.switch_cpus.commit.op_class_0::SimdMultAcc            0      0.00%     66.60% # Class of committed instruction
system.switch_cpus.commit.op_class_0::SimdShift            0      0.00%     66.60% # Class of committed instruction
system.switch_cpus.commit.op_class_0::SimdShiftAcc            0      0.00%     66.60% # Class of committed instruction
system.switch_cpus.commit.op_class_0::SimdSqrt            0      0.00%     66.60% # Class of committed instruction
system.switch_cpus.commit.op_class_0::SimdFloatAdd            0      0.00%     66.60% # Class of committed instruction
system.switch_cpus.commit.op_class_0::SimdFloatAlu            0      0.00%     66.60% # Class of committed instruction
system.switch_cpus.commit.op_class_0::SimdFloatCmp            0      0.00%     66.60% # Class of committed instruction
system.switch_cpus.commit.op_class_0::SimdFloatCvt            0      0.00%     66.60% # Class of committed instruction
system.switch_cpus.commit.op_class_0::SimdFloatDiv            0      0.00%     66.60% # Class of committed instruction
system.switch_cpus.commit.op_class_0::SimdFloatMisc            0      0.00%     66.60% # Class of committed instruction
system.switch_cpus.commit.op_class_0::SimdFloatMult            0      0.00%     66.60% # Class of committed instruction
system.switch_cpus.commit.op_class_0::SimdFloatMultAcc            0      0.00%     66.60% # Class of committed instruction
system.switch_cpus.commit.op_class_0::SimdFloatSqrt            0      0.00%     66.60% # Class of committed instruction
system.switch_cpus.commit.op_class_0::MemRead   1126093928     21.71%     88.31% # Class of committed instruction
system.switch_cpus.commit.op_class_0::MemWrite    589041816     11.36%     99.66% # Class of committed instruction
system.switch_cpus.commit.op_class_0::IprAccess     17579708      0.34%    100.00% # Class of committed instruction
system.switch_cpus.commit.op_class_0::InstPrefetch            0      0.00%    100.00% # Class of committed instruction
system.switch_cpus.commit.op_class_0::total   5187269276                       # Class of committed instruction
system.switch_cpus.commit.bw_lim_events     311578630                       # number cycles where commit BW limit reached
system.switch_cpus.rob.rob_reads          10429661860                       # The number of ROB reads
system.switch_cpus.rob.rob_writes         13669307799                       # The number of ROB writes
system.switch_cpus.timesIdled                 1221559                       # Number of times that the entire CPU went into an idle state and unscheduled itself
system.switch_cpus.idleCycles                15653713                       # Total number of cycles that the CPU has spent unscheduled due to idling
system.switch_cpus.quiesceCycles            126067711                       # Total number of cycles that CPU has spent quiesced or waiting for an interrupt
system.switch_cpus.committedInsts          4998558703                       # Number of Instructions Simulated
system.switch_cpus.committedOps            4998558703                       # Number of Ops (including micro ops) Simulated
system.switch_cpus.cpi                       0.854627                       # CPI: Cycles Per Instruction
system.switch_cpus.cpi_total                 0.854627                       # CPI: Total CPI of All Threads
system.switch_cpus.ipc                       1.170102                       # IPC: Instructions Per Cycle
system.switch_cpus.ipc_total                 1.170102                       # IPC: Total IPC of All Threads
system.switch_cpus.int_regfile_reads       7409543286                       # number of integer regfile reads
system.switch_cpus.int_regfile_writes      4021935012                       # number of integer regfile writes
system.switch_cpus.fp_regfile_reads         420533906                       # number of floating regfile reads
system.switch_cpus.fp_regfile_writes        218184249                       # number of floating regfile writes
system.switch_cpus.misc_regfile_reads       367907137                       # number of misc regfile reads
system.switch_cpus.misc_regfile_writes       43452631                       # number of misc regfile writes
system.tol2bus.trans_dist::ReadReq           15063937                       # Transaction distribution
system.tol2bus.trans_dist::ReadResp          15063420                       # Transaction distribution
system.tol2bus.trans_dist::WriteReq              9215                       # Transaction distribution
system.tol2bus.trans_dist::WriteResp             9215                       # Transaction distribution
system.tol2bus.trans_dist::Writeback         12031423                       # Transaction distribution
system.tol2bus.trans_dist::WriteInvalidateReq       375909                       # Transaction distribution
system.tol2bus.trans_dist::UpgradeReq             202                       # Transaction distribution
system.tol2bus.trans_dist::SCUpgradeReq            11                       # Transaction distribution
system.tol2bus.trans_dist::UpgradeResp            213                       # Transaction distribution
system.tol2bus.trans_dist::ReadExReq          6698625                       # Transaction distribution
system.tol2bus.trans_dist::ReadExResp         6698625                       # Transaction distribution
system.tol2bus.trans_dist::BadAddressError           14                       # Transaction distribution
system.tol2bus.pkt_count_system.cpu.icache.mem_side::system.l2.cpu_side      6223949                       # Packet count per connected master and slave (bytes)
system.tol2bus.pkt_count_system.cpu.dcache.mem_side::system.l2.cpu_side     49349757                       # Packet count per connected master and slave (bytes)
system.tol2bus.pkt_count::total              55573706                       # Packet count per connected master and slave (bytes)
system.tol2bus.pkt_size_system.cpu.icache.mem_side::system.l2.cpu_side    199156160                       # Cumulative packet size per connected master and slave (bytes)
system.tol2bus.pkt_size_system.cpu.dcache.mem_side::system.l2.cpu_side   1963323666                       # Cumulative packet size per connected master and slave (bytes)
system.tol2bus.pkt_size::total             2162479826                       # Cumulative packet size per connected master and slave (bytes)
system.tol2bus.snoops                          377475                       # Total snoops (count)
system.tol2bus.snoop_fanout::samples         34179322                       # Request fanout histogram
system.tol2bus.snoop_fanout::mean            1.011024                       # Request fanout histogram
system.tol2bus.snoop_fanout::stdev           0.104414                       # Request fanout histogram
system.tol2bus.snoop_fanout::underflows             0      0.00%      0.00% # Request fanout histogram
system.tol2bus.snoop_fanout::0                      0      0.00%      0.00% # Request fanout histogram
system.tol2bus.snoop_fanout::1               33802538     98.90%     98.90% # Request fanout histogram
system.tol2bus.snoop_fanout::2                 376784      1.10%    100.00% # Request fanout histogram
system.tol2bus.snoop_fanout::overflows              0      0.00%    100.00% # Request fanout histogram
system.tol2bus.snoop_fanout::min_value              1                       # Request fanout histogram
system.tol2bus.snoop_fanout::max_value              2                       # Request fanout histogram
system.tol2bus.snoop_fanout::total           34179322                       # Request fanout histogram
system.tol2bus.reqLayer0.occupancy        28937299500                       # Layer occupancy (ticks)
system.tol2bus.reqLayer0.utilization              1.3                       # Layer utilization (%)
system.tol2bus.snoopLayer0.occupancy           558000                       # Layer occupancy (ticks)
system.tol2bus.snoopLayer0.utilization            0.0                       # Layer utilization (%)
system.tol2bus.respLayer0.occupancy        4689492861                       # Layer occupancy (ticks)
system.tol2bus.respLayer0.utilization             0.2                       # Layer utilization (%)
system.tol2bus.respLayer1.occupancy       30009328564                       # Layer occupancy (ticks)
system.tol2bus.respLayer1.utilization             1.4                       # Layer utilization (%)
system.tsunami.ethernet.descDMAReads                0                       # Number of descriptors the device read w/ DMA
system.tsunami.ethernet.descDMAWrites               0                       # Number of descriptors the device wrote w/ DMA
system.tsunami.ethernet.descDmaReadBytes            0                       # number of descriptor bytes read w/ DMA
system.tsunami.ethernet.descDmaWriteBytes            0                       # number of descriptor bytes write w/ DMA
system.tsunami.ethernet.postedSwi                   0                       # number of software interrupts posted to CPU
system.tsunami.ethernet.coalescedSwi              nan                       # average number of Swi's coalesced into each post
system.tsunami.ethernet.totalSwi                    0                       # total number of Swi written to ISR
system.tsunami.ethernet.postedRxIdle                0                       # number of rxIdle interrupts posted to CPU
system.tsunami.ethernet.coalescedRxIdle           nan                       # average number of RxIdle's coalesced into each post
system.tsunami.ethernet.totalRxIdle                 0                       # total number of RxIdle written to ISR
system.tsunami.ethernet.postedRxOk                  0                       # number of RxOk interrupts posted to CPU
system.tsunami.ethernet.coalescedRxOk             nan                       # average number of RxOk's coalesced into each post
system.tsunami.ethernet.totalRxOk                   0                       # total number of RxOk written to ISR
system.tsunami.ethernet.postedRxDesc                0                       # number of RxDesc interrupts posted to CPU
system.tsunami.ethernet.coalescedRxDesc           nan                       # average number of RxDesc's coalesced into each post
system.tsunami.ethernet.totalRxDesc                 0                       # total number of RxDesc written to ISR
system.tsunami.ethernet.postedTxOk                  0                       # number of TxOk interrupts posted to CPU
system.tsunami.ethernet.coalescedTxOk             nan                       # average number of TxOk's coalesced into each post
system.tsunami.ethernet.totalTxOk                   0                       # total number of TxOk written to ISR
system.tsunami.ethernet.postedTxIdle                0                       # number of TxIdle interrupts posted to CPU
system.tsunami.ethernet.coalescedTxIdle           nan                       # average number of TxIdle's coalesced into each post
system.tsunami.ethernet.totalTxIdle                 0                       # total number of TxIdle written to ISR
system.tsunami.ethernet.postedTxDesc                0                       # number of TxDesc interrupts posted to CPU
system.tsunami.ethernet.coalescedTxDesc           nan                       # average number of TxDesc's coalesced into each post
system.tsunami.ethernet.totalTxDesc                 0                       # total number of TxDesc written to ISR
system.tsunami.ethernet.postedRxOrn                 0                       # number of RxOrn posted to CPU
system.tsunami.ethernet.coalescedRxOrn            nan                       # average number of RxOrn's coalesced into each post
system.tsunami.ethernet.totalRxOrn                  0                       # total number of RxOrn written to ISR
system.tsunami.ethernet.coalescedTotal            nan                       # average number of interrupts coalesced into each post
system.tsunami.ethernet.postedInterrupts            0                       # number of posts to CPU
system.tsunami.ethernet.droppedPackets              0                       # number of packets dropped
system.switch_cpus.kern.inst.arm                    0                       # number of arm instructions executed
system.switch_cpus.kern.inst.quiesce                0                       # number of quiesce instructions executed
system.switch_cpus.kern.inst.hwrei                  0                       # number of hwrei instructions executed
system.switch_cpus.kern.mode_switch::kernel            0                       # number of protection mode switches
system.switch_cpus.kern.mode_switch::user            0                       # number of protection mode switches
system.switch_cpus.kern.mode_switch::idle            0                       # number of protection mode switches
system.switch_cpus.kern.mode_good::kernel            0                      
system.switch_cpus.kern.mode_good::user             0                      
system.switch_cpus.kern.mode_good::idle             0                      
system.switch_cpus.kern.mode_switch_good::kernel          nan                       # fraction of useful protection mode switches
system.switch_cpus.kern.mode_switch_good::user          nan                       # fraction of useful protection mode switches
system.switch_cpus.kern.mode_switch_good::idle          nan                       # fraction of useful protection mode switches
system.switch_cpus.kern.mode_switch_good::total          nan                       # fraction of useful protection mode switches
system.switch_cpus.kern.mode_ticks::kernel            0                       # number of ticks spent at the given mode
system.switch_cpus.kern.mode_ticks::user            0                       # number of ticks spent at the given mode
system.switch_cpus.kern.mode_ticks::idle            0                       # number of ticks spent at the given mode
system.switch_cpus.kern.swap_context                0                       # number of times the context was actually changed

---------- End Simulation Statistics   ----------
