
---------- Begin Simulation Statistics ----------
sim_seconds                                  0.001186                       # Number of seconds simulated
sim_ticks                                  1186142500                       # Number of ticks simulated
final_tick                               2262439166000                       # Number of ticks from beginning of simulation (restored from checkpoints and never reset)
sim_freq                                 1000000000000                       # Frequency of simulated ticks
host_inst_rate                               32409419                       # Simulator instruction rate (inst/s)
host_op_rate                                 32409351                       # Simulator op (including micro ops) rate (op/s)
host_tick_rate                              326086168                       # Simulator tick rate (ticks/s)
host_mem_usage                                 741908                       # Number of bytes of host memory used
host_seconds                                     3.64                       # Real time elapsed on the host
sim_insts                                   117889202                       # Number of instructions simulated
sim_ops                                     117889202                       # Number of ops (including micro ops) simulated
system.voltage_domain.voltage                       1                       # Voltage in Volts
system.clk_domain.clock                          1000                       # Clock period in ticks
system.mem_ctrls.bytes_read::switch_cpus0.inst       181440                       # Number of bytes read from this memory
system.mem_ctrls.bytes_read::switch_cpus0.data       246528                       # Number of bytes read from this memory
system.mem_ctrls.bytes_read::switch_cpus1.inst        73344                       # Number of bytes read from this memory
system.mem_ctrls.bytes_read::switch_cpus1.data       130624                       # Number of bytes read from this memory
system.mem_ctrls.bytes_read::switch_cpus2.inst         2944                       # Number of bytes read from this memory
system.mem_ctrls.bytes_read::switch_cpus2.data         2240                       # Number of bytes read from this memory
system.mem_ctrls.bytes_read::switch_cpus3.inst       240512                       # Number of bytes read from this memory
system.mem_ctrls.bytes_read::switch_cpus3.data       693248                       # Number of bytes read from this memory
system.mem_ctrls.bytes_read::total            1570880                       # Number of bytes read from this memory
system.mem_ctrls.bytes_inst_read::switch_cpus0.inst       181440                       # Number of instructions bytes read from this memory
system.mem_ctrls.bytes_inst_read::switch_cpus1.inst        73344                       # Number of instructions bytes read from this memory
system.mem_ctrls.bytes_inst_read::switch_cpus2.inst         2944                       # Number of instructions bytes read from this memory
system.mem_ctrls.bytes_inst_read::switch_cpus3.inst       240512                       # Number of instructions bytes read from this memory
system.mem_ctrls.bytes_inst_read::total        498240                       # Number of instructions bytes read from this memory
system.mem_ctrls.bytes_written::writebacks       659200                       # Number of bytes written to this memory
system.mem_ctrls.bytes_written::total          659200                       # Number of bytes written to this memory
system.mem_ctrls.num_reads::switch_cpus0.inst         2835                       # Number of read requests responded to by this memory
system.mem_ctrls.num_reads::switch_cpus0.data         3852                       # Number of read requests responded to by this memory
system.mem_ctrls.num_reads::switch_cpus1.inst         1146                       # Number of read requests responded to by this memory
system.mem_ctrls.num_reads::switch_cpus1.data         2041                       # Number of read requests responded to by this memory
system.mem_ctrls.num_reads::switch_cpus2.inst           46                       # Number of read requests responded to by this memory
system.mem_ctrls.num_reads::switch_cpus2.data           35                       # Number of read requests responded to by this memory
system.mem_ctrls.num_reads::switch_cpus3.inst         3758                       # Number of read requests responded to by this memory
system.mem_ctrls.num_reads::switch_cpus3.data        10832                       # Number of read requests responded to by this memory
system.mem_ctrls.num_reads::total               24545                       # Number of read requests responded to by this memory
system.mem_ctrls.num_writes::writebacks         10300                       # Number of write requests responded to by this memory
system.mem_ctrls.num_writes::total              10300                       # Number of write requests responded to by this memory
system.mem_ctrls.bw_read::switch_cpus0.inst    152966444                       # Total read bandwidth from this memory (bytes/s)
system.mem_ctrls.bw_read::switch_cpus0.data    207840120                       # Total read bandwidth from this memory (bytes/s)
system.mem_ctrls.bw_read::switch_cpus1.inst     61834055                       # Total read bandwidth from this memory (bytes/s)
system.mem_ctrls.bw_read::switch_cpus1.data    110125048                       # Total read bandwidth from this memory (bytes/s)
system.mem_ctrls.bw_read::switch_cpus2.inst      2481995                       # Total read bandwidth from this memory (bytes/s)
system.mem_ctrls.bw_read::switch_cpus2.data      1888475                       # Total read bandwidth from this memory (bytes/s)
system.mem_ctrls.bw_read::switch_cpus3.inst    202768217                       # Total read bandwidth from this memory (bytes/s)
system.mem_ctrls.bw_read::switch_cpus3.data    584455915                       # Total read bandwidth from this memory (bytes/s)
system.mem_ctrls.bw_read::total            1324360269                       # Total read bandwidth from this memory (bytes/s)
system.mem_ctrls.bw_inst_read::switch_cpus0.inst    152966444                       # Instruction read bandwidth from this memory (bytes/s)
system.mem_ctrls.bw_inst_read::switch_cpus1.inst     61834055                       # Instruction read bandwidth from this memory (bytes/s)
system.mem_ctrls.bw_inst_read::switch_cpus2.inst      2481995                       # Instruction read bandwidth from this memory (bytes/s)
system.mem_ctrls.bw_inst_read::switch_cpus3.inst    202768217                       # Instruction read bandwidth from this memory (bytes/s)
system.mem_ctrls.bw_inst_read::total        420050711                       # Instruction read bandwidth from this memory (bytes/s)
system.mem_ctrls.bw_write::writebacks       555751101                       # Write bandwidth from this memory (bytes/s)
system.mem_ctrls.bw_write::total            555751101                       # Write bandwidth from this memory (bytes/s)
system.mem_ctrls.bw_total::writebacks       555751101                       # Total bandwidth to/from this memory (bytes/s)
system.mem_ctrls.bw_total::switch_cpus0.inst    152966444                       # Total bandwidth to/from this memory (bytes/s)
system.mem_ctrls.bw_total::switch_cpus0.data    207840120                       # Total bandwidth to/from this memory (bytes/s)
system.mem_ctrls.bw_total::switch_cpus1.inst     61834055                       # Total bandwidth to/from this memory (bytes/s)
system.mem_ctrls.bw_total::switch_cpus1.data    110125048                       # Total bandwidth to/from this memory (bytes/s)
system.mem_ctrls.bw_total::switch_cpus2.inst      2481995                       # Total bandwidth to/from this memory (bytes/s)
system.mem_ctrls.bw_total::switch_cpus2.data      1888475                       # Total bandwidth to/from this memory (bytes/s)
system.mem_ctrls.bw_total::switch_cpus3.inst    202768217                       # Total bandwidth to/from this memory (bytes/s)
system.mem_ctrls.bw_total::switch_cpus3.data    584455915                       # Total bandwidth to/from this memory (bytes/s)
system.mem_ctrls.bw_total::total           1880111369                       # Total bandwidth to/from this memory (bytes/s)
system.mem_ctrls.readReqs                       24545                       # Number of read requests accepted
system.mem_ctrls.writeReqs                      10300                       # Number of write requests accepted
system.mem_ctrls.readBursts                     24545                       # Number of DRAM read bursts, including those serviced by the write queue
system.mem_ctrls.writeBursts                    10300                       # Number of DRAM write bursts, including those merged in the write queue
system.mem_ctrls.bytesReadDRAM                1566720                       # Total number of bytes read from DRAM
system.mem_ctrls.bytesReadWrQ                    4160                       # Total number of bytes read from write queue
system.mem_ctrls.bytesWritten                  658112                       # Total number of bytes written to DRAM
system.mem_ctrls.bytesReadSys                 1570880                       # Total read bytes from the system interface side
system.mem_ctrls.bytesWrittenSys               659200                       # Total written bytes from the system interface side
system.mem_ctrls.servicedByWrQ                     65                       # Number of DRAM read bursts serviced by the write queue
system.mem_ctrls.mergedWrBursts                     0                       # Number of DRAM write bursts merged with an existing one
system.mem_ctrls.neitherReadNorWriteReqs           61                       # Number of requests that are neither read nor write
system.mem_ctrls.perBankRdBursts::0              1147                       # Per bank write bursts
system.mem_ctrls.perBankRdBursts::1              1209                       # Per bank write bursts
system.mem_ctrls.perBankRdBursts::2              1553                       # Per bank write bursts
system.mem_ctrls.perBankRdBursts::3               968                       # Per bank write bursts
system.mem_ctrls.perBankRdBursts::4              1287                       # Per bank write bursts
system.mem_ctrls.perBankRdBursts::5              1943                       # Per bank write bursts
system.mem_ctrls.perBankRdBursts::6              1417                       # Per bank write bursts
system.mem_ctrls.perBankRdBursts::7              1212                       # Per bank write bursts
system.mem_ctrls.perBankRdBursts::8              1662                       # Per bank write bursts
system.mem_ctrls.perBankRdBursts::9              1920                       # Per bank write bursts
system.mem_ctrls.perBankRdBursts::10             1397                       # Per bank write bursts
system.mem_ctrls.perBankRdBursts::11             1302                       # Per bank write bursts
system.mem_ctrls.perBankRdBursts::12             1761                       # Per bank write bursts
system.mem_ctrls.perBankRdBursts::13             2445                       # Per bank write bursts
system.mem_ctrls.perBankRdBursts::14             1714                       # Per bank write bursts
system.mem_ctrls.perBankRdBursts::15             1543                       # Per bank write bursts
system.mem_ctrls.perBankWrBursts::0               422                       # Per bank write bursts
system.mem_ctrls.perBankWrBursts::1               635                       # Per bank write bursts
system.mem_ctrls.perBankWrBursts::2               385                       # Per bank write bursts
system.mem_ctrls.perBankWrBursts::3               198                       # Per bank write bursts
system.mem_ctrls.perBankWrBursts::4               334                       # Per bank write bursts
system.mem_ctrls.perBankWrBursts::5               791                       # Per bank write bursts
system.mem_ctrls.perBankWrBursts::6               396                       # Per bank write bursts
system.mem_ctrls.perBankWrBursts::7               300                       # Per bank write bursts
system.mem_ctrls.perBankWrBursts::8               415                       # Per bank write bursts
system.mem_ctrls.perBankWrBursts::9               587                       # Per bank write bursts
system.mem_ctrls.perBankWrBursts::10              698                       # Per bank write bursts
system.mem_ctrls.perBankWrBursts::11              758                       # Per bank write bursts
system.mem_ctrls.perBankWrBursts::12             1144                       # Per bank write bursts
system.mem_ctrls.perBankWrBursts::13             1218                       # Per bank write bursts
system.mem_ctrls.perBankWrBursts::14             1048                       # Per bank write bursts
system.mem_ctrls.perBankWrBursts::15              954                       # Per bank write bursts
system.mem_ctrls.numRdRetry                         0                       # Number of times read queue was full causing retry
system.mem_ctrls.numWrRetry                         0                       # Number of times write queue was full causing retry
system.mem_ctrls.totGap                    1186055000                       # Total gap between requests
system.mem_ctrls.readPktSize::0                     0                       # Read request sizes (log2)
system.mem_ctrls.readPktSize::1                     0                       # Read request sizes (log2)
system.mem_ctrls.readPktSize::2                     0                       # Read request sizes (log2)
system.mem_ctrls.readPktSize::3                     0                       # Read request sizes (log2)
system.mem_ctrls.readPktSize::4                     0                       # Read request sizes (log2)
system.mem_ctrls.readPktSize::5                     0                       # Read request sizes (log2)
system.mem_ctrls.readPktSize::6                 24545                       # Read request sizes (log2)
system.mem_ctrls.writePktSize::0                    0                       # Write request sizes (log2)
system.mem_ctrls.writePktSize::1                    0                       # Write request sizes (log2)
system.mem_ctrls.writePktSize::2                    0                       # Write request sizes (log2)
system.mem_ctrls.writePktSize::3                    0                       # Write request sizes (log2)
system.mem_ctrls.writePktSize::4                    0                       # Write request sizes (log2)
system.mem_ctrls.writePktSize::5                    0                       # Write request sizes (log2)
system.mem_ctrls.writePktSize::6                10300                       # Write request sizes (log2)
system.mem_ctrls.rdQLenPdf::0                   11383                       # What read queue length does an incoming req see
system.mem_ctrls.rdQLenPdf::1                    6743                       # What read queue length does an incoming req see
system.mem_ctrls.rdQLenPdf::2                    3885                       # What read queue length does an incoming req see
system.mem_ctrls.rdQLenPdf::3                    2107                       # What read queue length does an incoming req see
system.mem_ctrls.rdQLenPdf::4                     247                       # What read queue length does an incoming req see
system.mem_ctrls.rdQLenPdf::5                      75                       # What read queue length does an incoming req see
system.mem_ctrls.rdQLenPdf::6                      20                       # What read queue length does an incoming req see
system.mem_ctrls.rdQLenPdf::7                      11                       # What read queue length does an incoming req see
system.mem_ctrls.rdQLenPdf::8                       4                       # What read queue length does an incoming req see
system.mem_ctrls.rdQLenPdf::9                       1                       # What read queue length does an incoming req see
system.mem_ctrls.rdQLenPdf::10                      1                       # What read queue length does an incoming req see
system.mem_ctrls.rdQLenPdf::11                      1                       # What read queue length does an incoming req see
system.mem_ctrls.rdQLenPdf::12                      1                       # What read queue length does an incoming req see
system.mem_ctrls.rdQLenPdf::13                      1                       # What read queue length does an incoming req see
system.mem_ctrls.rdQLenPdf::14                      0                       # What read queue length does an incoming req see
system.mem_ctrls.rdQLenPdf::15                      0                       # What read queue length does an incoming req see
system.mem_ctrls.rdQLenPdf::16                      0                       # What read queue length does an incoming req see
system.mem_ctrls.rdQLenPdf::17                      0                       # What read queue length does an incoming req see
system.mem_ctrls.rdQLenPdf::18                      0                       # What read queue length does an incoming req see
system.mem_ctrls.rdQLenPdf::19                      0                       # What read queue length does an incoming req see
system.mem_ctrls.rdQLenPdf::20                      0                       # What read queue length does an incoming req see
system.mem_ctrls.rdQLenPdf::21                      0                       # What read queue length does an incoming req see
system.mem_ctrls.rdQLenPdf::22                      0                       # What read queue length does an incoming req see
system.mem_ctrls.rdQLenPdf::23                      0                       # What read queue length does an incoming req see
system.mem_ctrls.rdQLenPdf::24                      0                       # What read queue length does an incoming req see
system.mem_ctrls.rdQLenPdf::25                      0                       # What read queue length does an incoming req see
system.mem_ctrls.rdQLenPdf::26                      0                       # What read queue length does an incoming req see
system.mem_ctrls.rdQLenPdf::27                      0                       # What read queue length does an incoming req see
system.mem_ctrls.rdQLenPdf::28                      0                       # What read queue length does an incoming req see
system.mem_ctrls.rdQLenPdf::29                      0                       # What read queue length does an incoming req see
system.mem_ctrls.rdQLenPdf::30                      0                       # What read queue length does an incoming req see
system.mem_ctrls.rdQLenPdf::31                      0                       # What read queue length does an incoming req see
system.mem_ctrls.wrQLenPdf::0                       1                       # What write queue length does an incoming req see
system.mem_ctrls.wrQLenPdf::1                       1                       # What write queue length does an incoming req see
system.mem_ctrls.wrQLenPdf::2                       1                       # What write queue length does an incoming req see
system.mem_ctrls.wrQLenPdf::3                       1                       # What write queue length does an incoming req see
system.mem_ctrls.wrQLenPdf::4                       1                       # What write queue length does an incoming req see
system.mem_ctrls.wrQLenPdf::5                       1                       # What write queue length does an incoming req see
system.mem_ctrls.wrQLenPdf::6                       1                       # What write queue length does an incoming req see
system.mem_ctrls.wrQLenPdf::7                       1                       # What write queue length does an incoming req see
system.mem_ctrls.wrQLenPdf::8                       1                       # What write queue length does an incoming req see
system.mem_ctrls.wrQLenPdf::9                       1                       # What write queue length does an incoming req see
system.mem_ctrls.wrQLenPdf::10                      1                       # What write queue length does an incoming req see
system.mem_ctrls.wrQLenPdf::11                      1                       # What write queue length does an incoming req see
system.mem_ctrls.wrQLenPdf::12                      1                       # What write queue length does an incoming req see
system.mem_ctrls.wrQLenPdf::13                      1                       # What write queue length does an incoming req see
system.mem_ctrls.wrQLenPdf::14                      1                       # What write queue length does an incoming req see
system.mem_ctrls.wrQLenPdf::15                     41                       # What write queue length does an incoming req see
system.mem_ctrls.wrQLenPdf::16                     46                       # What write queue length does an incoming req see
system.mem_ctrls.wrQLenPdf::17                    274                       # What write queue length does an incoming req see
system.mem_ctrls.wrQLenPdf::18                    455                       # What write queue length does an incoming req see
system.mem_ctrls.wrQLenPdf::19                    571                       # What write queue length does an incoming req see
system.mem_ctrls.wrQLenPdf::20                    640                       # What write queue length does an incoming req see
system.mem_ctrls.wrQLenPdf::21                    654                       # What write queue length does an incoming req see
system.mem_ctrls.wrQLenPdf::22                    654                       # What write queue length does an incoming req see
system.mem_ctrls.wrQLenPdf::23                    666                       # What write queue length does an incoming req see
system.mem_ctrls.wrQLenPdf::24                    675                       # What write queue length does an incoming req see
system.mem_ctrls.wrQLenPdf::25                    694                       # What write queue length does an incoming req see
system.mem_ctrls.wrQLenPdf::26                    791                       # What write queue length does an incoming req see
system.mem_ctrls.wrQLenPdf::27                    688                       # What write queue length does an incoming req see
system.mem_ctrls.wrQLenPdf::28                    689                       # What write queue length does an incoming req see
system.mem_ctrls.wrQLenPdf::29                    734                       # What write queue length does an incoming req see
system.mem_ctrls.wrQLenPdf::30                    675                       # What write queue length does an incoming req see
system.mem_ctrls.wrQLenPdf::31                    679                       # What write queue length does an incoming req see
system.mem_ctrls.wrQLenPdf::32                    649                       # What write queue length does an incoming req see
system.mem_ctrls.wrQLenPdf::33                      7                       # What write queue length does an incoming req see
system.mem_ctrls.wrQLenPdf::34                      2                       # What write queue length does an incoming req see
system.mem_ctrls.wrQLenPdf::35                      1                       # What write queue length does an incoming req see
system.mem_ctrls.wrQLenPdf::36                      0                       # What write queue length does an incoming req see
system.mem_ctrls.wrQLenPdf::37                      0                       # What write queue length does an incoming req see
system.mem_ctrls.wrQLenPdf::38                      0                       # What write queue length does an incoming req see
system.mem_ctrls.wrQLenPdf::39                      0                       # What write queue length does an incoming req see
system.mem_ctrls.wrQLenPdf::40                      0                       # What write queue length does an incoming req see
system.mem_ctrls.wrQLenPdf::41                      0                       # What write queue length does an incoming req see
system.mem_ctrls.wrQLenPdf::42                      0                       # What write queue length does an incoming req see
system.mem_ctrls.wrQLenPdf::43                      0                       # What write queue length does an incoming req see
system.mem_ctrls.wrQLenPdf::44                      0                       # What write queue length does an incoming req see
system.mem_ctrls.wrQLenPdf::45                      0                       # What write queue length does an incoming req see
system.mem_ctrls.wrQLenPdf::46                      0                       # What write queue length does an incoming req see
system.mem_ctrls.wrQLenPdf::47                      0                       # What write queue length does an incoming req see
system.mem_ctrls.wrQLenPdf::48                      0                       # What write queue length does an incoming req see
system.mem_ctrls.wrQLenPdf::49                      0                       # What write queue length does an incoming req see
system.mem_ctrls.wrQLenPdf::50                      0                       # What write queue length does an incoming req see
system.mem_ctrls.wrQLenPdf::51                      0                       # What write queue length does an incoming req see
system.mem_ctrls.wrQLenPdf::52                      0                       # What write queue length does an incoming req see
system.mem_ctrls.wrQLenPdf::53                      0                       # What write queue length does an incoming req see
system.mem_ctrls.wrQLenPdf::54                      0                       # What write queue length does an incoming req see
system.mem_ctrls.wrQLenPdf::55                      0                       # What write queue length does an incoming req see
system.mem_ctrls.wrQLenPdf::56                      0                       # What write queue length does an incoming req see
system.mem_ctrls.wrQLenPdf::57                      0                       # What write queue length does an incoming req see
system.mem_ctrls.wrQLenPdf::58                      0                       # What write queue length does an incoming req see
system.mem_ctrls.wrQLenPdf::59                      0                       # What write queue length does an incoming req see
system.mem_ctrls.wrQLenPdf::60                      0                       # What write queue length does an incoming req see
system.mem_ctrls.wrQLenPdf::61                      0                       # What write queue length does an incoming req see
system.mem_ctrls.wrQLenPdf::62                      0                       # What write queue length does an incoming req see
system.mem_ctrls.wrQLenPdf::63                      0                       # What write queue length does an incoming req see
system.mem_ctrls.bytesPerActivate::samples         9231                       # Bytes accessed per row activation
system.mem_ctrls.bytesPerActivate::mean    240.719315                       # Bytes accessed per row activation
system.mem_ctrls.bytesPerActivate::gmean   141.159466                       # Bytes accessed per row activation
system.mem_ctrls.bytesPerActivate::stdev   292.637863                       # Bytes accessed per row activation
system.mem_ctrls.bytesPerActivate::0-127         4479     48.52%     48.52% # Bytes accessed per row activation
system.mem_ctrls.bytesPerActivate::128-255         2195     23.78%     72.30% # Bytes accessed per row activation
system.mem_ctrls.bytesPerActivate::256-383          726      7.86%     80.16% # Bytes accessed per row activation
system.mem_ctrls.bytesPerActivate::384-511          402      4.35%     84.52% # Bytes accessed per row activation
system.mem_ctrls.bytesPerActivate::512-639          253      2.74%     87.26% # Bytes accessed per row activation
system.mem_ctrls.bytesPerActivate::640-767          164      1.78%     89.04% # Bytes accessed per row activation
system.mem_ctrls.bytesPerActivate::768-895          132      1.43%     90.47% # Bytes accessed per row activation
system.mem_ctrls.bytesPerActivate::896-1023          130      1.41%     91.88% # Bytes accessed per row activation
system.mem_ctrls.bytesPerActivate::1024-1151          750      8.12%    100.00% # Bytes accessed per row activation
system.mem_ctrls.bytesPerActivate::total         9231                       # Bytes accessed per row activation
system.mem_ctrls.rdPerTurnAround::samples          636                       # Reads before turning the bus around for writes
system.mem_ctrls.rdPerTurnAround::mean      38.470126                       # Reads before turning the bus around for writes
system.mem_ctrls.rdPerTurnAround::gmean     31.709846                       # Reads before turning the bus around for writes
system.mem_ctrls.rdPerTurnAround::stdev     26.513893                       # Reads before turning the bus around for writes
system.mem_ctrls.rdPerTurnAround::8-15             40      6.29%      6.29% # Reads before turning the bus around for writes
system.mem_ctrls.rdPerTurnAround::16-23           206     32.39%     38.68% # Reads before turning the bus around for writes
system.mem_ctrls.rdPerTurnAround::24-31            73     11.48%     50.16% # Reads before turning the bus around for writes
system.mem_ctrls.rdPerTurnAround::32-39            85     13.36%     63.52% # Reads before turning the bus around for writes
system.mem_ctrls.rdPerTurnAround::40-47            69     10.85%     74.37% # Reads before turning the bus around for writes
system.mem_ctrls.rdPerTurnAround::48-55            34      5.35%     79.72% # Reads before turning the bus around for writes
system.mem_ctrls.rdPerTurnAround::56-63            33      5.19%     84.91% # Reads before turning the bus around for writes
system.mem_ctrls.rdPerTurnAround::64-71            27      4.25%     89.15% # Reads before turning the bus around for writes
system.mem_ctrls.rdPerTurnAround::72-79            17      2.67%     91.82% # Reads before turning the bus around for writes
system.mem_ctrls.rdPerTurnAround::80-87            13      2.04%     93.87% # Reads before turning the bus around for writes
system.mem_ctrls.rdPerTurnAround::88-95             8      1.26%     95.13% # Reads before turning the bus around for writes
system.mem_ctrls.rdPerTurnAround::96-103           11      1.73%     96.86% # Reads before turning the bus around for writes
system.mem_ctrls.rdPerTurnAround::104-111            9      1.42%     98.27% # Reads before turning the bus around for writes
system.mem_ctrls.rdPerTurnAround::112-119            1      0.16%     98.43% # Reads before turning the bus around for writes
system.mem_ctrls.rdPerTurnAround::120-127            4      0.63%     99.06% # Reads before turning the bus around for writes
system.mem_ctrls.rdPerTurnAround::128-135            1      0.16%     99.21% # Reads before turning the bus around for writes
system.mem_ctrls.rdPerTurnAround::136-143            3      0.47%     99.69% # Reads before turning the bus around for writes
system.mem_ctrls.rdPerTurnAround::144-151            1      0.16%     99.84% # Reads before turning the bus around for writes
system.mem_ctrls.rdPerTurnAround::232-239            1      0.16%    100.00% # Reads before turning the bus around for writes
system.mem_ctrls.rdPerTurnAround::total           636                       # Reads before turning the bus around for writes
system.mem_ctrls.wrPerTurnAround::samples          636                       # Writes before turning the bus around for reads
system.mem_ctrls.wrPerTurnAround::mean      16.168239                       # Writes before turning the bus around for reads
system.mem_ctrls.wrPerTurnAround::gmean     16.157861                       # Writes before turning the bus around for reads
system.mem_ctrls.wrPerTurnAround::stdev      0.605745                       # Writes before turning the bus around for reads
system.mem_ctrls.wrPerTurnAround::16              585     91.98%     91.98% # Writes before turning the bus around for reads
system.mem_ctrls.wrPerTurnAround::17                8      1.26%     93.24% # Writes before turning the bus around for reads
system.mem_ctrls.wrPerTurnAround::18               33      5.19%     98.43% # Writes before turning the bus around for reads
system.mem_ctrls.wrPerTurnAround::19                7      1.10%     99.53% # Writes before turning the bus around for reads
system.mem_ctrls.wrPerTurnAround::20                3      0.47%    100.00% # Writes before turning the bus around for reads
system.mem_ctrls.wrPerTurnAround::total           636                       # Writes before turning the bus around for reads
system.mem_ctrls.totQLat                    496131250                       # Total ticks spent queuing
system.mem_ctrls.totMemAccLat               955131250                       # Total ticks spent from burst creation until serviced by the DRAM
system.mem_ctrls.totBusLat                  122400000                       # Total ticks spent in databus transfers
system.mem_ctrls.avgQLat                     20266.80                       # Average queueing delay per DRAM burst
system.mem_ctrls.avgBusLat                    5000.00                       # Average bus latency per DRAM burst
system.mem_ctrls.avgMemAccLat                39016.80                       # Average memory access latency per DRAM burst
system.mem_ctrls.avgRdBW                      1320.85                       # Average DRAM read bandwidth in MiByte/s
system.mem_ctrls.avgWrBW                       554.83                       # Average achieved write bandwidth in MiByte/s
system.mem_ctrls.avgRdBWSys                   1324.36                       # Average system read bandwidth in MiByte/s
system.mem_ctrls.avgWrBWSys                    555.75                       # Average system write bandwidth in MiByte/s
system.mem_ctrls.peakBW                      12800.00                       # Theoretical peak bandwidth in MiByte/s
system.mem_ctrls.busUtil                        14.65                       # Data bus utilization in percentage
system.mem_ctrls.busUtilRead                    10.32                       # Data bus utilization in percentage for reads
system.mem_ctrls.busUtilWrite                    4.33                       # Data bus utilization in percentage for writes
system.mem_ctrls.avgRdQLen                       1.92                       # Average read queue length when enqueuing
system.mem_ctrls.avgWrQLen                      25.83                       # Average write queue length when enqueuing
system.mem_ctrls.readRowHits                    18216                       # Number of row buffer hits during reads
system.mem_ctrls.writeRowHits                    7305                       # Number of row buffer hits during writes
system.mem_ctrls.readRowHitRate                 74.41                       # Row buffer hit rate for reads
system.mem_ctrls.writeRowHitRate                70.92                       # Row buffer hit rate for writes
system.mem_ctrls.avgGap                      34038.03                       # Average gap between requests
system.mem_ctrls.pageHitRate                    73.38                       # Row buffer hit rate, read and write combined
system.mem_ctrls_0.actEnergy                 27427680                       # Energy for activate commands per rank (pJ)
system.mem_ctrls_0.preEnergy                 14965500                       # Energy for precharge commands per rank (pJ)
system.mem_ctrls_0.readEnergy                83608200                       # Energy for read commands per rank (pJ)
system.mem_ctrls_0.writeEnergy               22304160                       # Energy for write commands per rank (pJ)
system.mem_ctrls_0.refreshEnergy             77301120                       # Energy for refresh commands per rank (pJ)
system.mem_ctrls_0.actBackEnergy            781933410                       # Energy for active background per rank (pJ)
system.mem_ctrls_0.preBackEnergy             24355500                       # Energy for precharge background per rank (pJ)
system.mem_ctrls_0.totalEnergy             1031895570                       # Total energy per rank (pJ)
system.mem_ctrls_0.averagePower            871.702755                       # Core power per rank (mW)
system.mem_ctrls_0.memoryStateTime::IDLE     35755500                       # Time in different power states
system.mem_ctrls_0.memoryStateTime::REF      39520000                       # Time in different power states
system.mem_ctrls_0.memoryStateTime::PRE_PDN            0                       # Time in different power states
system.mem_ctrls_0.memoryStateTime::ACT    1108765500                       # Time in different power states
system.mem_ctrls_0.memoryStateTime::ACT_PDN            0                       # Time in different power states
system.mem_ctrls_1.actEnergy                 42305760                       # Energy for activate commands per rank (pJ)
system.mem_ctrls_1.preEnergy                 23083500                       # Energy for precharge commands per rank (pJ)
system.mem_ctrls_1.readEnergy               107008200                       # Energy for read commands per rank (pJ)
system.mem_ctrls_1.writeEnergy               44206560                       # Energy for write commands per rank (pJ)
system.mem_ctrls_1.refreshEnergy             77301120                       # Energy for refresh commands per rank (pJ)
system.mem_ctrls_1.actBackEnergy            790974180                       # Energy for active background per rank (pJ)
system.mem_ctrls_1.preBackEnergy             16425000                       # Energy for precharge background per rank (pJ)
system.mem_ctrls_1.totalEnergy             1101304320                       # Total energy per rank (pJ)
system.mem_ctrls_1.averagePower            930.336400                       # Core power per rank (mW)
system.mem_ctrls_1.memoryStateTime::IDLE     22425500                       # Time in different power states
system.mem_ctrls_1.memoryStateTime::REF      39520000                       # Time in different power states
system.mem_ctrls_1.memoryStateTime::PRE_PDN            0                       # Time in different power states
system.mem_ctrls_1.memoryStateTime::ACT    1121838250                       # Time in different power states
system.mem_ctrls_1.memoryStateTime::ACT_PDN            0                       # Time in different power states
system.cpu_voltage_domain.voltage                   1                       # Voltage in Volts
system.cpu_clk_domain.clock                       500                       # Clock period in ticks
system.cpu0.dtb.fetch_hits                          0                       # ITB hits
system.cpu0.dtb.fetch_misses                        0                       # ITB misses
system.cpu0.dtb.fetch_acv                           0                       # ITB acv
system.cpu0.dtb.fetch_accesses                      0                       # ITB accesses
system.cpu0.dtb.read_hits                           0                       # DTB read hits
system.cpu0.dtb.read_misses                         0                       # DTB read misses
system.cpu0.dtb.read_acv                            0                       # DTB read access violations
system.cpu0.dtb.read_accesses                       0                       # DTB read accesses
system.cpu0.dtb.write_hits                          0                       # DTB write hits
system.cpu0.dtb.write_misses                        0                       # DTB write misses
system.cpu0.dtb.write_acv                           0                       # DTB write access violations
system.cpu0.dtb.write_accesses                      0                       # DTB write accesses
system.cpu0.dtb.data_hits                           0                       # DTB hits
system.cpu0.dtb.data_misses                         0                       # DTB misses
system.cpu0.dtb.data_acv                            0                       # DTB access violations
system.cpu0.dtb.data_accesses                       0                       # DTB accesses
system.cpu0.itb.fetch_hits                          0                       # ITB hits
system.cpu0.itb.fetch_misses                        0                       # ITB misses
system.cpu0.itb.fetch_acv                           0                       # ITB acv
system.cpu0.itb.fetch_accesses                      0                       # ITB accesses
system.cpu0.itb.read_hits                           0                       # DTB read hits
system.cpu0.itb.read_misses                         0                       # DTB read misses
system.cpu0.itb.read_acv                            0                       # DTB read access violations
system.cpu0.itb.read_accesses                       0                       # DTB read accesses
system.cpu0.itb.write_hits                          0                       # DTB write hits
system.cpu0.itb.write_misses                        0                       # DTB write misses
system.cpu0.itb.write_acv                           0                       # DTB write access violations
system.cpu0.itb.write_accesses                      0                       # DTB write accesses
system.cpu0.itb.data_hits                           0                       # DTB hits
system.cpu0.itb.data_misses                         0                       # DTB misses
system.cpu0.itb.data_acv                            0                       # DTB access violations
system.cpu0.itb.data_accesses                       0                       # DTB accesses
system.cpu0.numCycles                               0                       # number of cpu cycles simulated
system.cpu0.numWorkItemsStarted                     0                       # number of work items this cpu started
system.cpu0.numWorkItemsCompleted                   0                       # number of work items this cpu completed
system.cpu0.committedInsts                          0                       # Number of instructions committed
system.cpu0.committedOps                            0                       # Number of ops (including micro ops) committed
system.cpu0.num_int_alu_accesses                    0                       # Number of integer alu accesses
system.cpu0.num_fp_alu_accesses                     0                       # Number of float alu accesses
system.cpu0.num_func_calls                          0                       # number of times a function call or return occured
system.cpu0.num_conditional_control_insts            0                       # number of instructions that are conditional controls
system.cpu0.num_int_insts                           0                       # number of integer instructions
system.cpu0.num_fp_insts                            0                       # number of float instructions
system.cpu0.num_int_register_reads                  0                       # number of times the integer registers were read
system.cpu0.num_int_register_writes                 0                       # number of times the integer registers were written
system.cpu0.num_fp_register_reads                   0                       # number of times the floating registers were read
system.cpu0.num_fp_register_writes                  0                       # number of times the floating registers were written
system.cpu0.num_mem_refs                            0                       # number of memory refs
system.cpu0.num_load_insts                          0                       # Number of load instructions
system.cpu0.num_store_insts                         0                       # Number of store instructions
system.cpu0.num_idle_cycles                         0                       # Number of idle cycles
system.cpu0.num_busy_cycles                         0                       # Number of busy cycles
system.cpu0.not_idle_fraction                       1                       # Percentage of non-idle cycles
system.cpu0.idle_fraction                           0                       # Percentage of idle cycles
system.cpu0.op_class::No_OpClass                    0                       # Class of executed instruction
system.cpu0.op_class::IntAlu                        0                       # Class of executed instruction
system.cpu0.op_class::IntMult                       0                       # Class of executed instruction
system.cpu0.op_class::IntDiv                        0                       # Class of executed instruction
system.cpu0.op_class::FloatAdd                      0                       # Class of executed instruction
system.cpu0.op_class::FloatCmp                      0                       # Class of executed instruction
system.cpu0.op_class::FloatCvt                      0                       # Class of executed instruction
system.cpu0.op_class::FloatMult                     0                       # Class of executed instruction
system.cpu0.op_class::FloatDiv                      0                       # Class of executed instruction
system.cpu0.op_class::FloatSqrt                     0                       # Class of executed instruction
system.cpu0.op_class::SimdAdd                       0                       # Class of executed instruction
system.cpu0.op_class::SimdAddAcc                    0                       # Class of executed instruction
system.cpu0.op_class::SimdAlu                       0                       # Class of executed instruction
system.cpu0.op_class::SimdCmp                       0                       # Class of executed instruction
system.cpu0.op_class::SimdCvt                       0                       # Class of executed instruction
system.cpu0.op_class::SimdMisc                      0                       # Class of executed instruction
system.cpu0.op_class::SimdMult                      0                       # Class of executed instruction
system.cpu0.op_class::SimdMultAcc                   0                       # Class of executed instruction
system.cpu0.op_class::SimdShift                     0                       # Class of executed instruction
system.cpu0.op_class::SimdShiftAcc                  0                       # Class of executed instruction
system.cpu0.op_class::SimdSqrt                      0                       # Class of executed instruction
system.cpu0.op_class::SimdFloatAdd                  0                       # Class of executed instruction
system.cpu0.op_class::SimdFloatAlu                  0                       # Class of executed instruction
system.cpu0.op_class::SimdFloatCmp                  0                       # Class of executed instruction
system.cpu0.op_class::SimdFloatCvt                  0                       # Class of executed instruction
system.cpu0.op_class::SimdFloatDiv                  0                       # Class of executed instruction
system.cpu0.op_class::SimdFloatMisc                 0                       # Class of executed instruction
system.cpu0.op_class::SimdFloatMult                 0                       # Class of executed instruction
system.cpu0.op_class::SimdFloatMultAcc              0                       # Class of executed instruction
system.cpu0.op_class::SimdFloatSqrt                 0                       # Class of executed instruction
system.cpu0.op_class::MemRead                       0                       # Class of executed instruction
system.cpu0.op_class::MemWrite                      0                       # Class of executed instruction
system.cpu0.op_class::IprAccess                     0                       # Class of executed instruction
system.cpu0.op_class::InstPrefetch                  0                       # Class of executed instruction
system.cpu0.op_class::total                         0                       # Class of executed instruction
system.cpu0.kern.inst.arm                           0                       # number of arm instructions executed
system.cpu0.kern.inst.quiesce                       3                       # number of quiesce instructions executed
system.cpu0.kern.inst.hwrei                       597                       # number of hwrei instructions executed
system.cpu0.kern.ipl_count::0                     168     46.28%     46.28% # number of times we switched to this ipl
system.cpu0.kern.ipl_count::22                      1      0.28%     46.56% # number of times we switched to this ipl
system.cpu0.kern.ipl_count::30                      1      0.28%     46.83% # number of times we switched to this ipl
system.cpu0.kern.ipl_count::31                    193     53.17%    100.00% # number of times we switched to this ipl
system.cpu0.kern.ipl_count::total                 363                       # number of times we switched to this ipl
system.cpu0.kern.ipl_good::0                      168     49.85%     49.85% # number of times we switched to this ipl from a different ipl
system.cpu0.kern.ipl_good::22                       1      0.30%     50.15% # number of times we switched to this ipl from a different ipl
system.cpu0.kern.ipl_good::30                       1      0.30%     50.45% # number of times we switched to this ipl from a different ipl
system.cpu0.kern.ipl_good::31                     167     49.55%    100.00% # number of times we switched to this ipl from a different ipl
system.cpu0.kern.ipl_good::total                  337                       # number of times we switched to this ipl from a different ipl
system.cpu0.kern.ipl_ticks::0               490503000     88.20%     88.20% # number of cycles we spent at this ipl
system.cpu0.kern.ipl_ticks::22                 890500      0.16%     88.36% # number of cycles we spent at this ipl
system.cpu0.kern.ipl_ticks::30                1504000      0.27%     88.63% # number of cycles we spent at this ipl
system.cpu0.kern.ipl_ticks::31               63241500     11.37%    100.00% # number of cycles we spent at this ipl
system.cpu0.kern.ipl_ticks::total           556139000                       # number of cycles we spent at this ipl
system.cpu0.kern.ipl_used::0                        1                       # fraction of swpipl calls that actually changed the ipl
system.cpu0.kern.ipl_used::22                       1                       # fraction of swpipl calls that actually changed the ipl
system.cpu0.kern.ipl_used::30                       1                       # fraction of swpipl calls that actually changed the ipl
system.cpu0.kern.ipl_used::31                0.865285                       # fraction of swpipl calls that actually changed the ipl
system.cpu0.kern.ipl_used::total             0.928375                       # fraction of swpipl calls that actually changed the ipl
system.cpu0.kern.syscall::2                         1     33.33%     33.33% # number of syscalls executed
system.cpu0.kern.syscall::3                         1     33.33%     66.67% # number of syscalls executed
system.cpu0.kern.syscall::19                        1     33.33%    100.00% # number of syscalls executed
system.cpu0.kern.syscall::total                     3                       # number of syscalls executed
system.cpu0.kern.callpal::wripir                    1      0.26%      0.26% # number of callpals executed
system.cpu0.kern.callpal::swpctx                   12      3.08%      3.34% # number of callpals executed
system.cpu0.kern.callpal::tbi                       2      0.51%      3.86% # number of callpals executed
system.cpu0.kern.callpal::swpipl                  342     87.92%     91.77% # number of callpals executed
system.cpu0.kern.callpal::rdps                      2      0.51%     92.29% # number of callpals executed
system.cpu0.kern.callpal::rdusp                     1      0.26%     92.54% # number of callpals executed
system.cpu0.kern.callpal::rti                      19      4.88%     97.43% # number of callpals executed
system.cpu0.kern.callpal::callsys                   9      2.31%     99.74% # number of callpals executed
system.cpu0.kern.callpal::imb                       1      0.26%    100.00% # number of callpals executed
system.cpu0.kern.callpal::total                   389                       # number of callpals executed
system.cpu0.kern.mode_switch::kernel               32                       # number of protection mode switches
system.cpu0.kern.mode_switch::user                 17                       # number of protection mode switches
system.cpu0.kern.mode_switch::idle                  0                       # number of protection mode switches
system.cpu0.kern.mode_good::kernel                 18                      
system.cpu0.kern.mode_good::user                   17                      
system.cpu0.kern.mode_good::idle                    0                      
system.cpu0.kern.mode_switch_good::kernel     0.562500                       # fraction of useful protection mode switches
system.cpu0.kern.mode_switch_good::user             1                       # fraction of useful protection mode switches
system.cpu0.kern.mode_switch_good::idle           nan                       # fraction of useful protection mode switches
system.cpu0.kern.mode_switch_good::total     0.714286                       # fraction of useful protection mode switches
system.cpu0.kern.mode_ticks::kernel         240299000     73.58%     73.58% # number of ticks spent at the given mode
system.cpu0.kern.mode_ticks::user            86286500     26.42%    100.00% # number of ticks spent at the given mode
system.cpu0.kern.mode_ticks::idle                   0      0.00%    100.00% # number of ticks spent at the given mode
system.cpu0.kern.swap_context                      12                       # number of times the context was actually changed
system.cpu0.dcache.tags.replacements             4851                       # number of replacements
system.cpu0.dcache.tags.tagsinuse          504.912054                       # Cycle average of tags in use
system.cpu0.dcache.tags.total_refs              55714                       # Total number of references to valid blocks.
system.cpu0.dcache.tags.sampled_refs             4851                       # Sample count of references to valid blocks.
system.cpu0.dcache.tags.avg_refs            11.485055                       # Average number of references to valid blocks.
system.cpu0.dcache.tags.warmup_cycle                0                       # Cycle when the warmup percentage was hit.
system.cpu0.dcache.tags.occ_blocks::cpu0.data    24.989708                       # Average occupied blocks per requestor
system.cpu0.dcache.tags.occ_blocks::switch_cpus0.data   479.922346                       # Average occupied blocks per requestor
system.cpu0.dcache.tags.occ_percent::cpu0.data     0.048808                       # Average percentage of cache occupancy
system.cpu0.dcache.tags.occ_percent::switch_cpus0.data     0.937348                       # Average percentage of cache occupancy
system.cpu0.dcache.tags.occ_percent::total     0.986156                       # Average percentage of cache occupancy
system.cpu0.dcache.tags.occ_task_id_blocks::1024          500                       # Occupied blocks per task id
system.cpu0.dcache.tags.age_task_id_blocks_1024::2          491                       # Occupied blocks per task id
system.cpu0.dcache.tags.age_task_id_blocks_1024::3            9                       # Occupied blocks per task id
system.cpu0.dcache.tags.occ_task_id_percent::1024     0.976562                       # Percentage of cache occupancy per task id
system.cpu0.dcache.tags.tag_accesses           288748                       # Number of tag accesses
system.cpu0.dcache.tags.data_accesses          288748                       # Number of data accesses
system.cpu0.dcache.ReadReq_hits::switch_cpus0.data        32922                       # number of ReadReq hits
system.cpu0.dcache.ReadReq_hits::total          32922                       # number of ReadReq hits
system.cpu0.dcache.WriteReq_hits::switch_cpus0.data        13625                       # number of WriteReq hits
system.cpu0.dcache.WriteReq_hits::total         13625                       # number of WriteReq hits
system.cpu0.dcache.LoadLockedReq_hits::switch_cpus0.data          531                       # number of LoadLockedReq hits
system.cpu0.dcache.LoadLockedReq_hits::total          531                       # number of LoadLockedReq hits
system.cpu0.dcache.StoreCondReq_hits::switch_cpus0.data          596                       # number of StoreCondReq hits
system.cpu0.dcache.StoreCondReq_hits::total          596                       # number of StoreCondReq hits
system.cpu0.dcache.demand_hits::switch_cpus0.data        46547                       # number of demand (read+write) hits
system.cpu0.dcache.demand_hits::total           46547                       # number of demand (read+write) hits
system.cpu0.dcache.overall_hits::switch_cpus0.data        46547                       # number of overall hits
system.cpu0.dcache.overall_hits::total          46547                       # number of overall hits
system.cpu0.dcache.ReadReq_misses::switch_cpus0.data         8649                       # number of ReadReq misses
system.cpu0.dcache.ReadReq_misses::total         8649                       # number of ReadReq misses
system.cpu0.dcache.WriteReq_misses::switch_cpus0.data        14461                       # number of WriteReq misses
system.cpu0.dcache.WriteReq_misses::total        14461                       # number of WriteReq misses
system.cpu0.dcache.LoadLockedReq_misses::switch_cpus0.data          157                       # number of LoadLockedReq misses
system.cpu0.dcache.LoadLockedReq_misses::total          157                       # number of LoadLockedReq misses
system.cpu0.dcache.StoreCondReq_misses::switch_cpus0.data           23                       # number of StoreCondReq misses
system.cpu0.dcache.StoreCondReq_misses::total           23                       # number of StoreCondReq misses
system.cpu0.dcache.demand_misses::switch_cpus0.data        23110                       # number of demand (read+write) misses
system.cpu0.dcache.demand_misses::total         23110                       # number of demand (read+write) misses
system.cpu0.dcache.overall_misses::switch_cpus0.data        23110                       # number of overall misses
system.cpu0.dcache.overall_misses::total        23110                       # number of overall misses
system.cpu0.dcache.ReadReq_miss_latency::switch_cpus0.data    533526478                       # number of ReadReq miss cycles
system.cpu0.dcache.ReadReq_miss_latency::total    533526478                       # number of ReadReq miss cycles
system.cpu0.dcache.WriteReq_miss_latency::switch_cpus0.data   1072310434                       # number of WriteReq miss cycles
system.cpu0.dcache.WriteReq_miss_latency::total   1072310434                       # number of WriteReq miss cycles
system.cpu0.dcache.LoadLockedReq_miss_latency::switch_cpus0.data     10818500                       # number of LoadLockedReq miss cycles
system.cpu0.dcache.LoadLockedReq_miss_latency::total     10818500                       # number of LoadLockedReq miss cycles
system.cpu0.dcache.StoreCondReq_miss_latency::switch_cpus0.data       221003                       # number of StoreCondReq miss cycles
system.cpu0.dcache.StoreCondReq_miss_latency::total       221003                       # number of StoreCondReq miss cycles
system.cpu0.dcache.demand_miss_latency::switch_cpus0.data   1605836912                       # number of demand (read+write) miss cycles
system.cpu0.dcache.demand_miss_latency::total   1605836912                       # number of demand (read+write) miss cycles
system.cpu0.dcache.overall_miss_latency::switch_cpus0.data   1605836912                       # number of overall miss cycles
system.cpu0.dcache.overall_miss_latency::total   1605836912                       # number of overall miss cycles
system.cpu0.dcache.ReadReq_accesses::switch_cpus0.data        41571                       # number of ReadReq accesses(hits+misses)
system.cpu0.dcache.ReadReq_accesses::total        41571                       # number of ReadReq accesses(hits+misses)
system.cpu0.dcache.WriteReq_accesses::switch_cpus0.data        28086                       # number of WriteReq accesses(hits+misses)
system.cpu0.dcache.WriteReq_accesses::total        28086                       # number of WriteReq accesses(hits+misses)
system.cpu0.dcache.LoadLockedReq_accesses::switch_cpus0.data          688                       # number of LoadLockedReq accesses(hits+misses)
system.cpu0.dcache.LoadLockedReq_accesses::total          688                       # number of LoadLockedReq accesses(hits+misses)
system.cpu0.dcache.StoreCondReq_accesses::switch_cpus0.data          619                       # number of StoreCondReq accesses(hits+misses)
system.cpu0.dcache.StoreCondReq_accesses::total          619                       # number of StoreCondReq accesses(hits+misses)
system.cpu0.dcache.demand_accesses::switch_cpus0.data        69657                       # number of demand (read+write) accesses
system.cpu0.dcache.demand_accesses::total        69657                       # number of demand (read+write) accesses
system.cpu0.dcache.overall_accesses::switch_cpus0.data        69657                       # number of overall (read+write) accesses
system.cpu0.dcache.overall_accesses::total        69657                       # number of overall (read+write) accesses
system.cpu0.dcache.ReadReq_miss_rate::switch_cpus0.data     0.208054                       # miss rate for ReadReq accesses
system.cpu0.dcache.ReadReq_miss_rate::total     0.208054                       # miss rate for ReadReq accesses
system.cpu0.dcache.WriteReq_miss_rate::switch_cpus0.data     0.514883                       # miss rate for WriteReq accesses
system.cpu0.dcache.WriteReq_miss_rate::total     0.514883                       # miss rate for WriteReq accesses
system.cpu0.dcache.LoadLockedReq_miss_rate::switch_cpus0.data     0.228198                       # miss rate for LoadLockedReq accesses
system.cpu0.dcache.LoadLockedReq_miss_rate::total     0.228198                       # miss rate for LoadLockedReq accesses
system.cpu0.dcache.StoreCondReq_miss_rate::switch_cpus0.data     0.037157                       # miss rate for StoreCondReq accesses
system.cpu0.dcache.StoreCondReq_miss_rate::total     0.037157                       # miss rate for StoreCondReq accesses
system.cpu0.dcache.demand_miss_rate::switch_cpus0.data     0.331769                       # miss rate for demand accesses
system.cpu0.dcache.demand_miss_rate::total     0.331769                       # miss rate for demand accesses
system.cpu0.dcache.overall_miss_rate::switch_cpus0.data     0.331769                       # miss rate for overall accesses
system.cpu0.dcache.overall_miss_rate::total     0.331769                       # miss rate for overall accesses
system.cpu0.dcache.ReadReq_avg_miss_latency::switch_cpus0.data 61686.493005                       # average ReadReq miss latency
system.cpu0.dcache.ReadReq_avg_miss_latency::total 61686.493005                       # average ReadReq miss latency
system.cpu0.dcache.WriteReq_avg_miss_latency::switch_cpus0.data 74151.886730                       # average WriteReq miss latency
system.cpu0.dcache.WriteReq_avg_miss_latency::total 74151.886730                       # average WriteReq miss latency
system.cpu0.dcache.LoadLockedReq_avg_miss_latency::switch_cpus0.data 68907.643312                       # average LoadLockedReq miss latency
system.cpu0.dcache.LoadLockedReq_avg_miss_latency::total 68907.643312                       # average LoadLockedReq miss latency
system.cpu0.dcache.StoreCondReq_avg_miss_latency::switch_cpus0.data  9608.826087                       # average StoreCondReq miss latency
system.cpu0.dcache.StoreCondReq_avg_miss_latency::total  9608.826087                       # average StoreCondReq miss latency
system.cpu0.dcache.demand_avg_miss_latency::switch_cpus0.data 69486.668628                       # average overall miss latency
system.cpu0.dcache.demand_avg_miss_latency::total 69486.668628                       # average overall miss latency
system.cpu0.dcache.overall_avg_miss_latency::switch_cpus0.data 69486.668628                       # average overall miss latency
system.cpu0.dcache.overall_avg_miss_latency::total 69486.668628                       # average overall miss latency
system.cpu0.dcache.blocked_cycles::no_mshrs        91966                       # number of cycles access was blocked
system.cpu0.dcache.blocked_cycles::no_targets            0                       # number of cycles access was blocked
system.cpu0.dcache.blocked::no_mshrs             2044                       # number of cycles access was blocked
system.cpu0.dcache.blocked::no_targets              0                       # number of cycles access was blocked
system.cpu0.dcache.avg_blocked_cycles::no_mshrs    44.993151                       # average number of cycles each access was blocked
system.cpu0.dcache.avg_blocked_cycles::no_targets          nan                       # average number of cycles each access was blocked
system.cpu0.dcache.fast_writes                      0                       # number of fast writes performed
system.cpu0.dcache.cache_copies                     0                       # number of cache copies performed
system.cpu0.dcache.writebacks::writebacks         2801                       # number of writebacks
system.cpu0.dcache.writebacks::total             2801                       # number of writebacks
system.cpu0.dcache.ReadReq_mshr_hits::switch_cpus0.data         5871                       # number of ReadReq MSHR hits
system.cpu0.dcache.ReadReq_mshr_hits::total         5871                       # number of ReadReq MSHR hits
system.cpu0.dcache.WriteReq_mshr_hits::switch_cpus0.data        12379                       # number of WriteReq MSHR hits
system.cpu0.dcache.WriteReq_mshr_hits::total        12379                       # number of WriteReq MSHR hits
system.cpu0.dcache.LoadLockedReq_mshr_hits::switch_cpus0.data           56                       # number of LoadLockedReq MSHR hits
system.cpu0.dcache.LoadLockedReq_mshr_hits::total           56                       # number of LoadLockedReq MSHR hits
system.cpu0.dcache.demand_mshr_hits::switch_cpus0.data        18250                       # number of demand (read+write) MSHR hits
system.cpu0.dcache.demand_mshr_hits::total        18250                       # number of demand (read+write) MSHR hits
system.cpu0.dcache.overall_mshr_hits::switch_cpus0.data        18250                       # number of overall MSHR hits
system.cpu0.dcache.overall_mshr_hits::total        18250                       # number of overall MSHR hits
system.cpu0.dcache.ReadReq_mshr_misses::switch_cpus0.data         2778                       # number of ReadReq MSHR misses
system.cpu0.dcache.ReadReq_mshr_misses::total         2778                       # number of ReadReq MSHR misses
system.cpu0.dcache.WriteReq_mshr_misses::switch_cpus0.data         2082                       # number of WriteReq MSHR misses
system.cpu0.dcache.WriteReq_mshr_misses::total         2082                       # number of WriteReq MSHR misses
system.cpu0.dcache.LoadLockedReq_mshr_misses::switch_cpus0.data          101                       # number of LoadLockedReq MSHR misses
system.cpu0.dcache.LoadLockedReq_mshr_misses::total          101                       # number of LoadLockedReq MSHR misses
system.cpu0.dcache.StoreCondReq_mshr_misses::switch_cpus0.data           23                       # number of StoreCondReq MSHR misses
system.cpu0.dcache.StoreCondReq_mshr_misses::total           23                       # number of StoreCondReq MSHR misses
system.cpu0.dcache.demand_mshr_misses::switch_cpus0.data         4860                       # number of demand (read+write) MSHR misses
system.cpu0.dcache.demand_mshr_misses::total         4860                       # number of demand (read+write) MSHR misses
system.cpu0.dcache.overall_mshr_misses::switch_cpus0.data         4860                       # number of overall MSHR misses
system.cpu0.dcache.overall_mshr_misses::total         4860                       # number of overall MSHR misses
system.cpu0.dcache.WriteReq_mshr_uncacheable::switch_cpus0.data            3                       # number of WriteReq MSHR uncacheable
system.cpu0.dcache.WriteReq_mshr_uncacheable::total            3                       # number of WriteReq MSHR uncacheable
system.cpu0.dcache.overall_mshr_uncacheable_misses::switch_cpus0.data            3                       # number of overall MSHR uncacheable misses
system.cpu0.dcache.overall_mshr_uncacheable_misses::total            3                       # number of overall MSHR uncacheable misses
system.cpu0.dcache.ReadReq_mshr_miss_latency::switch_cpus0.data    194181023                       # number of ReadReq MSHR miss cycles
system.cpu0.dcache.ReadReq_mshr_miss_latency::total    194181023                       # number of ReadReq MSHR miss cycles
system.cpu0.dcache.WriteReq_mshr_miss_latency::switch_cpus0.data    171529283                       # number of WriteReq MSHR miss cycles
system.cpu0.dcache.WriteReq_mshr_miss_latency::total    171529283                       # number of WriteReq MSHR miss cycles
system.cpu0.dcache.LoadLockedReq_mshr_miss_latency::switch_cpus0.data      7185500                       # number of LoadLockedReq MSHR miss cycles
system.cpu0.dcache.LoadLockedReq_mshr_miss_latency::total      7185500                       # number of LoadLockedReq MSHR miss cycles
system.cpu0.dcache.StoreCondReq_mshr_miss_latency::switch_cpus0.data       186497                       # number of StoreCondReq MSHR miss cycles
system.cpu0.dcache.StoreCondReq_mshr_miss_latency::total       186497                       # number of StoreCondReq MSHR miss cycles
system.cpu0.dcache.demand_mshr_miss_latency::switch_cpus0.data    365710306                       # number of demand (read+write) MSHR miss cycles
system.cpu0.dcache.demand_mshr_miss_latency::total    365710306                       # number of demand (read+write) MSHR miss cycles
system.cpu0.dcache.overall_mshr_miss_latency::switch_cpus0.data    365710306                       # number of overall MSHR miss cycles
system.cpu0.dcache.overall_mshr_miss_latency::total    365710306                       # number of overall MSHR miss cycles
system.cpu0.dcache.WriteReq_mshr_uncacheable_latency::switch_cpus0.data       671000                       # number of WriteReq MSHR uncacheable cycles
system.cpu0.dcache.WriteReq_mshr_uncacheable_latency::total       671000                       # number of WriteReq MSHR uncacheable cycles
system.cpu0.dcache.overall_mshr_uncacheable_latency::switch_cpus0.data       671000                       # number of overall MSHR uncacheable cycles
system.cpu0.dcache.overall_mshr_uncacheable_latency::total       671000                       # number of overall MSHR uncacheable cycles
system.cpu0.dcache.ReadReq_mshr_miss_rate::switch_cpus0.data     0.066825                       # mshr miss rate for ReadReq accesses
system.cpu0.dcache.ReadReq_mshr_miss_rate::total     0.066825                       # mshr miss rate for ReadReq accesses
system.cpu0.dcache.WriteReq_mshr_miss_rate::switch_cpus0.data     0.074129                       # mshr miss rate for WriteReq accesses
system.cpu0.dcache.WriteReq_mshr_miss_rate::total     0.074129                       # mshr miss rate for WriteReq accesses
system.cpu0.dcache.LoadLockedReq_mshr_miss_rate::switch_cpus0.data     0.146802                       # mshr miss rate for LoadLockedReq accesses
system.cpu0.dcache.LoadLockedReq_mshr_miss_rate::total     0.146802                       # mshr miss rate for LoadLockedReq accesses
system.cpu0.dcache.StoreCondReq_mshr_miss_rate::switch_cpus0.data     0.037157                       # mshr miss rate for StoreCondReq accesses
system.cpu0.dcache.StoreCondReq_mshr_miss_rate::total     0.037157                       # mshr miss rate for StoreCondReq accesses
system.cpu0.dcache.demand_mshr_miss_rate::switch_cpus0.data     0.069770                       # mshr miss rate for demand accesses
system.cpu0.dcache.demand_mshr_miss_rate::total     0.069770                       # mshr miss rate for demand accesses
system.cpu0.dcache.overall_mshr_miss_rate::switch_cpus0.data     0.069770                       # mshr miss rate for overall accesses
system.cpu0.dcache.overall_mshr_miss_rate::total     0.069770                       # mshr miss rate for overall accesses
system.cpu0.dcache.ReadReq_avg_mshr_miss_latency::switch_cpus0.data 69899.576314                       # average ReadReq mshr miss latency
system.cpu0.dcache.ReadReq_avg_mshr_miss_latency::total 69899.576314                       # average ReadReq mshr miss latency
system.cpu0.dcache.WriteReq_avg_mshr_miss_latency::switch_cpus0.data 82386.783381                       # average WriteReq mshr miss latency
system.cpu0.dcache.WriteReq_avg_mshr_miss_latency::total 82386.783381                       # average WriteReq mshr miss latency
system.cpu0.dcache.LoadLockedReq_avg_mshr_miss_latency::switch_cpus0.data 71143.564356                       # average LoadLockedReq mshr miss latency
system.cpu0.dcache.LoadLockedReq_avg_mshr_miss_latency::total 71143.564356                       # average LoadLockedReq mshr miss latency
system.cpu0.dcache.StoreCondReq_avg_mshr_miss_latency::switch_cpus0.data  8108.565217                       # average StoreCondReq mshr miss latency
system.cpu0.dcache.StoreCondReq_avg_mshr_miss_latency::total  8108.565217                       # average StoreCondReq mshr miss latency
system.cpu0.dcache.demand_avg_mshr_miss_latency::switch_cpus0.data 75249.034156                       # average overall mshr miss latency
system.cpu0.dcache.demand_avg_mshr_miss_latency::total 75249.034156                       # average overall mshr miss latency
system.cpu0.dcache.overall_avg_mshr_miss_latency::switch_cpus0.data 75249.034156                       # average overall mshr miss latency
system.cpu0.dcache.overall_avg_mshr_miss_latency::total 75249.034156                       # average overall mshr miss latency
system.cpu0.dcache.WriteReq_avg_mshr_uncacheable_latency::switch_cpus0.data 223666.666667                       # average WriteReq mshr uncacheable latency
system.cpu0.dcache.WriteReq_avg_mshr_uncacheable_latency::total 223666.666667                       # average WriteReq mshr uncacheable latency
system.cpu0.dcache.overall_avg_mshr_uncacheable_latency::switch_cpus0.data 223666.666667                       # average overall mshr uncacheable latency
system.cpu0.dcache.overall_avg_mshr_uncacheable_latency::total 223666.666667                       # average overall mshr uncacheable latency
system.cpu0.dcache.no_allocate_misses               0                       # Number of misses that were no-allocate
system.cpu0.icache.tags.replacements             3521                       # number of replacements
system.cpu0.icache.tags.tagsinuse          511.900164                       # Cycle average of tags in use
system.cpu0.icache.tags.total_refs             261007                       # Total number of references to valid blocks.
system.cpu0.icache.tags.sampled_refs             3521                       # Sample count of references to valid blocks.
system.cpu0.icache.tags.avg_refs            74.128657                       # Average number of references to valid blocks.
system.cpu0.icache.tags.warmup_cycle                0                       # Cycle when the warmup percentage was hit.
system.cpu0.icache.tags.occ_blocks::cpu0.inst    20.187756                       # Average occupied blocks per requestor
system.cpu0.icache.tags.occ_blocks::switch_cpus0.inst   491.712408                       # Average occupied blocks per requestor
system.cpu0.icache.tags.occ_percent::cpu0.inst     0.039429                       # Average percentage of cache occupancy
system.cpu0.icache.tags.occ_percent::switch_cpus0.inst     0.960376                       # Average percentage of cache occupancy
system.cpu0.icache.tags.occ_percent::total     0.999805                       # Average percentage of cache occupancy
system.cpu0.icache.tags.occ_task_id_blocks::1024          512                       # Occupied blocks per task id
system.cpu0.icache.tags.age_task_id_blocks_1024::2          468                       # Occupied blocks per task id
system.cpu0.icache.tags.age_task_id_blocks_1024::3           44                       # Occupied blocks per task id
system.cpu0.icache.tags.occ_task_id_percent::1024            1                       # Percentage of cache occupancy per task id
system.cpu0.icache.tags.tag_accesses            86515                       # Number of tag accesses
system.cpu0.icache.tags.data_accesses           86515                       # Number of data accesses
system.cpu0.icache.ReadReq_hits::switch_cpus0.inst        37182                       # number of ReadReq hits
system.cpu0.icache.ReadReq_hits::total          37182                       # number of ReadReq hits
system.cpu0.icache.demand_hits::switch_cpus0.inst        37182                       # number of demand (read+write) hits
system.cpu0.icache.demand_hits::total           37182                       # number of demand (read+write) hits
system.cpu0.icache.overall_hits::switch_cpus0.inst        37182                       # number of overall hits
system.cpu0.icache.overall_hits::total          37182                       # number of overall hits
system.cpu0.icache.ReadReq_misses::switch_cpus0.inst         4312                       # number of ReadReq misses
system.cpu0.icache.ReadReq_misses::total         4312                       # number of ReadReq misses
system.cpu0.icache.demand_misses::switch_cpus0.inst         4312                       # number of demand (read+write) misses
system.cpu0.icache.demand_misses::total          4312                       # number of demand (read+write) misses
system.cpu0.icache.overall_misses::switch_cpus0.inst         4312                       # number of overall misses
system.cpu0.icache.overall_misses::total         4312                       # number of overall misses
system.cpu0.icache.ReadReq_miss_latency::switch_cpus0.inst    311622865                       # number of ReadReq miss cycles
system.cpu0.icache.ReadReq_miss_latency::total    311622865                       # number of ReadReq miss cycles
system.cpu0.icache.demand_miss_latency::switch_cpus0.inst    311622865                       # number of demand (read+write) miss cycles
system.cpu0.icache.demand_miss_latency::total    311622865                       # number of demand (read+write) miss cycles
system.cpu0.icache.overall_miss_latency::switch_cpus0.inst    311622865                       # number of overall miss cycles
system.cpu0.icache.overall_miss_latency::total    311622865                       # number of overall miss cycles
system.cpu0.icache.ReadReq_accesses::switch_cpus0.inst        41494                       # number of ReadReq accesses(hits+misses)
system.cpu0.icache.ReadReq_accesses::total        41494                       # number of ReadReq accesses(hits+misses)
system.cpu0.icache.demand_accesses::switch_cpus0.inst        41494                       # number of demand (read+write) accesses
[...]
system.switch_cpus3.fp_regfile_reads        153775786                       # number of floating regfile reads
system.switch_cpus3.fp_regfile_writes       130783749                       # number of floating regfile writes
system.switch_cpus3.misc_regfile_reads      219963638                       # number of misc regfile reads
system.switch_cpus3.misc_regfile_writes       8962330                       # number of misc regfile writes
system.tol2bus.trans_dist::ReadReq           49783264                       # Transaction distribution
system.tol2bus.trans_dist::ReadResp          49783207                       # Transaction distribution
system.tol2bus.trans_dist::WriteReq            356946                       # Transaction distribution
system.tol2bus.trans_dist::WriteResp           356946                       # Transaction distribution
system.tol2bus.trans_dist::Writeback         11072755                       # Transaction distribution
system.tol2bus.trans_dist::WriteInvalidateReq         1282                       # Transaction distribution
system.tol2bus.trans_dist::UpgradeReq         5274651                       # Transaction distribution
system.tol2bus.trans_dist::SCUpgradeReq       2065442                       # Transaction distribution
system.tol2bus.trans_dist::UpgradeResp        7340093                       # Transaction distribution
system.tol2bus.trans_dist::SCUpgradeFailReq          356                       # Transaction distribution
system.tol2bus.trans_dist::UpgradeFailResp          356                       # Transaction distribution
system.tol2bus.trans_dist::ReadExReq          3202203                       # Transaction distribution
system.tol2bus.trans_dist::ReadExResp         3202203                       # Transaction distribution
system.tol2bus.trans_dist::BadAddressError           53                       # Transaction distribution
system.tol2bus.pkt_count_system.cpu0.icache.mem_side::system.l2.cpu_side     11226229                       # Packet count per connected master and slave (bytes)
system.tol2bus.pkt_count_system.cpu0.dcache.mem_side::system.l2.cpu_side     20995819                       # Packet count per connected master and slave (bytes)
system.tol2bus.pkt_count_system.cpu1.icache.mem_side::system.l2.cpu_side     10832324                       # Packet count per connected master and slave (bytes)
system.tol2bus.pkt_count_system.cpu1.dcache.mem_side::system.l2.cpu_side     21596835                       # Packet count per connected master and slave (bytes)
system.tol2bus.pkt_count_system.cpu2.icache.mem_side::system.l2.cpu_side      8051363                       # Packet count per connected master and slave (bytes)
system.tol2bus.pkt_count_system.cpu2.dcache.mem_side::system.l2.cpu_side     14118053                       # Packet count per connected master and slave (bytes)
system.tol2bus.pkt_count_system.cpu3.icache.mem_side::system.l2.cpu_side     10598947                       # Packet count per connected master and slave (bytes)
system.tol2bus.pkt_count_system.cpu3.dcache.mem_side::system.l2.cpu_side     20530863                       # Packet count per connected master and slave (bytes)
system.tol2bus.pkt_count::total             117950433                       # Packet count per connected master and slave (bytes)
system.tol2bus.pkt_size_system.cpu0.icache.mem_side::system.l2.cpu_side    359177792                       # Cumulative packet size per connected master and slave (bytes)
system.tol2bus.pkt_size_system.cpu0.dcache.mem_side::system.l2.cpu_side    610285716                       # Cumulative packet size per connected master and slave (bytes)
system.tol2bus.pkt_size_system.cpu1.icache.mem_side::system.l2.cpu_side    346558016                       # Cumulative packet size per connected master and slave (bytes)
system.tol2bus.pkt_size_system.cpu1.dcache.mem_side::system.l2.cpu_side    634221760                       # Cumulative packet size per connected master and slave (bytes)
system.tol2bus.pkt_size_system.cpu2.icache.mem_side::system.l2.cpu_side    257603712                       # Cumulative packet size per connected master and slave (bytes)
system.tol2bus.pkt_size_system.cpu2.dcache.mem_side::system.l2.cpu_side    397308399                       # Cumulative packet size per connected master and slave (bytes)
system.tol2bus.pkt_size_system.cpu3.icache.mem_side::system.l2.cpu_side    339102528                       # Cumulative packet size per connected master and slave (bytes)
system.tol2bus.pkt_size_system.cpu3.dcache.mem_side::system.l2.cpu_side    596463408                       # Cumulative packet size per connected master and slave (bytes)
system.tol2bus.pkt_size::total             3540721331                       # Cumulative packet size per connected master and slave (bytes)
system.tol2bus.snoops                        14489324                       # Total snoops (count)
system.tol2bus.snoop_fanout::samples         71756899                       # Request fanout histogram
system.tol2bus.snoop_fanout::mean            7.000018                       # Request fanout histogram
system.tol2bus.snoop_fanout::stdev           0.004233                       # Request fanout histogram
system.tol2bus.snoop_fanout::underflows             0      0.00%      0.00% # Request fanout histogram
system.tol2bus.snoop_fanout::0                      0      0.00%      0.00% # Request fanout histogram
system.tol2bus.snoop_fanout::1                      0      0.00%      0.00% # Request fanout histogram
system.tol2bus.snoop_fanout::2                      0      0.00%      0.00% # Request fanout histogram
system.tol2bus.snoop_fanout::3                      0      0.00%      0.00% # Request fanout histogram
system.tol2bus.snoop_fanout::4                      0      0.00%      0.00% # Request fanout histogram
system.tol2bus.snoop_fanout::5                      0      0.00%      0.00% # Request fanout histogram
system.tol2bus.snoop_fanout::6                      0      0.00%      0.00% # Request fanout histogram
system.tol2bus.snoop_fanout::7               71755613    100.00%    100.00% # Request fanout histogram
system.tol2bus.snoop_fanout::8                   1286      0.00%    100.00% # Request fanout histogram
system.tol2bus.snoop_fanout::overflows              0      0.00%    100.00% # Request fanout histogram
system.tol2bus.snoop_fanout::min_value              7                       # Request fanout histogram
system.tol2bus.snoop_fanout::max_value              8                       # Request fanout histogram
system.tol2bus.snoop_fanout::total           71756899                       # Request fanout histogram
system.tol2bus.reqLayer0.occupancy        47132197162                       # Layer occupancy (ticks)
system.tol2bus.reqLayer0.utilization              2.2                       # Layer utilization (%)
system.tol2bus.respLayer0.occupancy        8474491414                       # Layer occupancy (ticks)
system.tol2bus.respLayer0.utilization             0.4                       # Layer utilization (%)
system.tol2bus.respLayer1.occupancy       14787602053                       # Layer occupancy (ticks)
system.tol2bus.respLayer1.utilization             0.7                       # Layer utilization (%)
system.tol2bus.respLayer2.occupancy        8171539674                       # Layer occupancy (ticks)
system.tol2bus.respLayer2.utilization             0.4                       # Layer utilization (%)
system.tol2bus.respLayer3.occupancy       15247492771                       # Layer occupancy (ticks)
system.tol2bus.respLayer3.utilization             0.7                       # Layer utilization (%)
system.tol2bus.respLayer4.occupancy        6075875396                       # Layer occupancy (ticks)
system.tol2bus.respLayer4.utilization             0.3                       # Layer utilization (%)
system.tol2bus.respLayer5.occupancy       10078829601                       # Layer occupancy (ticks)
system.tol2bus.respLayer5.utilization             0.5                       # Layer utilization (%)
system.tol2bus.respLayer6.occupancy        7997831585                       # Layer occupancy (ticks)
system.tol2bus.respLayer6.utilization             0.4                       # Layer utilization (%)
system.tol2bus.respLayer7.occupancy       14561707337                       # Layer occupancy (ticks)
system.tol2bus.respLayer7.utilization             0.7                       # Layer utilization (%)
system.tsunami.ethernet.descDMAReads                0                       # Number of descriptors the device read w/ DMA
system.tsunami.ethernet.descDMAWrites               0                       # Number of descriptors the device wrote w/ DMA
system.tsunami.ethernet.descDmaReadBytes            0                       # number of descriptor bytes read w/ DMA
system.tsunami.ethernet.descDmaWriteBytes            0                       # number of descriptor bytes write w/ DMA
system.tsunami.ethernet.postedSwi                   0                       # number of software interrupts posted to CPU
system.tsunami.ethernet.coalescedSwi              nan                       # average number of Swi's coalesced into each post
system.tsunami.ethernet.totalSwi                    0                       # total number of Swi written to ISR
system.tsunami.ethernet.postedRxIdle                0                       # number of rxIdle interrupts posted to CPU
system.tsunami.ethernet.coalescedRxIdle           nan                       # average number of RxIdle's coalesced into each post
system.tsunami.ethernet.totalRxIdle                 0                       # total number of RxIdle written to ISR
system.tsunami.ethernet.postedRxOk                  0                       # number of RxOk interrupts posted to CPU
system.tsunami.ethernet.coalescedRxOk             nan                       # average number of RxOk's coalesced into each post
system.tsunami.ethernet.totalRxOk                   0                       # total number of RxOk written to ISR
system.tsunami.ethernet.postedRxDesc                0                       # number of RxDesc interrupts posted to CPU
system.tsunami.ethernet.coalescedRxDesc           nan                       # average number of RxDesc's coalesced into each post
system.tsunami.ethernet.totalRxDesc                 0                       # total number of RxDesc written to ISR
system.tsunami.ethernet.postedTxOk                  0                       # number of TxOk interrupts posted to CPU
system.tsunami.ethernet.coalescedTxOk             nan                       # average number of TxOk's coalesced into each post
system.tsunami.ethernet.totalTxOk                   0                       # total number of TxOk written to ISR
system.tsunami.ethernet.postedTxIdle                0                       # number of TxIdle interrupts posted to CPU
system.tsunami.ethernet.coalescedTxIdle           nan                       # average number of TxIdle's coalesced into each post
system.tsunami.ethernet.totalTxIdle                 0                       # total number of TxIdle written to ISR
system.tsunami.ethernet.postedTxDesc                0                       # number of TxDesc interrupts posted to CPU
system.tsunami.ethernet.coalescedTxDesc           nan                       # average number of TxDesc's coalesced into each post
system.tsunami.ethernet.totalTxDesc                 0                       # total number of TxDesc written to ISR
system.tsunami.ethernet.postedRxOrn                 0                       # number of RxOrn posted to CPU
system.tsunami.ethernet.coalescedRxOrn            nan                       # average number of RxOrn's coalesced into each post
system.tsunami.ethernet.totalRxOrn                  0                       # total number of RxOrn written to ISR
system.tsunami.ethernet.coalescedTotal            nan                       # average number of interrupts coalesced into each post
system.tsunami.ethernet.postedInterrupts            0                       # number of posts to CPU
system.tsunami.ethernet.droppedPackets              0                       # number of packets dropped
system.switch_cpus0.kern.inst.arm                   0                       # number of arm instructions executed
system.switch_cpus0.kern.inst.quiesce               0                       # number of quiesce instructions executed
system.switch_cpus0.kern.inst.hwrei                 0                       # number of hwrei instructions executed
system.switch_cpus0.kern.mode_switch::kernel            0                       # number of protection mode switches
system.switch_cpus0.kern.mode_switch::user            0                       # number of protection mode switches
system.switch_cpus0.kern.mode_switch::idle            0                       # number of protection mode switches
system.switch_cpus0.kern.mode_good::kernel            0                      
system.switch_cpus0.kern.mode_good::user            0                      
system.switch_cpus0.kern.mode_good::idle            0                      
system.switch_cpus0.kern.mode_switch_good::kernel          nan                       # fraction of useful protection mode switches
system.switch_cpus0.kern.mode_switch_good::user          nan                       # fraction of useful protection mode switches
system.switch_cpus0.kern.mode_switch_good::idle          nan                       # fraction of useful protection mode switches
system.switch_cpus0.kern.mode_switch_good::total          nan                       # fraction of useful protection mode switches
system.switch_cpus0.kern.mode_ticks::kernel            0                       # number of ticks spent at the given mode
system.switch_cpus0.kern.mode_ticks::user            0                       # number of ticks spent at the given mode
system.switch_cpus0.kern.mode_ticks::idle            0                       # number of ticks spent at the given mode
system.switch_cpus0.kern.swap_context               0                       # number of times the context was actually changed
system.switch_cpus1.kern.inst.arm                   0                       # number of arm instructions executed
system.switch_cpus1.kern.inst.quiesce               0                       # number of quiesce instructions executed
system.switch_cpus1.kern.inst.hwrei                 0                       # number of hwrei instructions executed
system.switch_cpus1.kern.mode_switch::kernel            0                       # number of protection mode switches
system.switch_cpus1.kern.mode_switch::user            0                       # number of protection mode switches
system.switch_cpus1.kern.mode_switch::idle            0                       # number of protection mode switches
system.switch_cpus1.kern.mode_good::kernel            0                      
system.switch_cpus1.kern.mode_good::user            0                      
system.switch_cpus1.kern.mode_good::idle            0                      
system.switch_cpus1.kern.mode_switch_good::kernel          nan                       # fraction of useful protection mode switches
system.switch_cpus1.kern.mode_switch_good::user          nan                       # fraction of useful protection mode switches
system.switch_cpus1.kern.mode_switch_good::idle          nan                       # fraction of useful protection mode switches
system.switch_cpus1.kern.mode_switch_good::total          nan                       # fraction of useful protection mode switches
system.switch_cpus1.kern.mode_ticks::kernel            0                       # number of ticks spent at the given mode
system.switch_cpus1.kern.mode_ticks::user            0                       # number of ticks spent at the given mode
system.switch_cpus1.kern.mode_ticks::idle            0                       # number of ticks spent at the given mode
system.switch_cpus1.kern.swap_context               0                       # number of times the context was actually changed
system.switch_cpus2.kern.inst.arm                   0                       # number of arm instructions executed
system.switch_cpus2.kern.inst.quiesce               0                       # number of quiesce instructions executed
system.switch_cpus2.kern.inst.hwrei                 0                       # number of hwrei instructions executed
system.switch_cpus2.kern.mode_switch::kernel            0                       # number of protection mode switches
system.switch_cpus2.kern.mode_switch::user            0                       # number of protection mode switches
system.switch_cpus2.kern.mode_switch::idle            0                       # number of protection mode switches
system.switch_cpus2.kern.mode_good::kernel            0                      
system.switch_cpus2.kern.mode_good::user            0                      
system.switch_cpus2.kern.mode_good::idle            0                      
system.switch_cpus2.kern.mode_switch_good::kernel          nan                       # fraction of useful protection mode switches
system.switch_cpus2.kern.mode_switch_good::user          nan                       # fraction of useful protection mode switches
system.switch_cpus2.kern.mode_switch_good::idle          nan                       # fraction of useful protection mode switches
system.switch_cpus2.kern.mode_switch_good::total          nan                       # fraction of useful protection mode switches
system.switch_cpus2.kern.mode_ticks::kernel            0                       # number of ticks spent at the given mode
system.switch_cpus2.kern.mode_ticks::user            0                       # number of ticks spent at the given mode
system.switch_cpus2.kern.mode_ticks::idle            0                       # number of ticks spent at the given mode
system.switch_cpus2.kern.swap_context               0                       # number of times the context was actually changed
system.switch_cpus3.kern.inst.arm                   0                       # number of arm instructions executed
system.switch_cpus3.kern.inst.quiesce               0                       # number of quiesce instructions executed
system.switch_cpus3.kern.inst.hwrei                 0                       # number of hwrei instructions executed
system.switch_cpus3.kern.mode_switch::kernel            0                       # number of protection mode switches
system.switch_cpus3.kern.mode_switch::user            0                       # number of protection mode switches
system.switch_cpus3.kern.mode_switch::idle            0                       # number of protection mode switches
system.switch_cpus3.kern.mode_good::kernel            0                      
system.switch_cpus3.kern.mode_good::user            0                      
system.switch_cpus3.kern.mode_good::idle            0                      
system.switch_cpus3.kern.mode_switch_good::kernel          nan                       # fraction of useful protection mode switches
system.switch_cpus3.kern.mode_switch_good::user          nan                       # fraction of useful protection mode switches
system.switch_cpus3.kern.mode_switch_good::idle          nan                       # fraction of useful protection mode switches
system.switch_cpus3.kern.mode_switch_good::total          nan                       # fraction of useful protection mode switches
system.switch_cpus3.kern.mode_ticks::kernel            0                       # number of ticks spent at the given mode
system.switch_cpus3.kern.mode_ticks::user            0                       # number of ticks spent at the given mode
system.switch_cpus3.kern.mode_ticks::idle            0                       # number of ticks spent at the given mode
system.switch_cpus3.kern.swap_context               0                       # number of times the context was actually changed

---------- End Simulation Statistics   ----------
