
---------- Begin Simulation Statistics ----------
sim_seconds                                  0.000796                       # Number of seconds simulated
sim_ticks                                   795604000                       # Number of ticks simulated
final_tick                               2255234752500                       # Number of ticks from beginning of simulation (restored from checkpoints and never reset)
sim_freq                                 1000000000000                       # Frequency of simulated ticks
host_inst_rate                               37598616                       # Simulator instruction rate (inst/s)
host_op_rate                                 37598500                       # Simulator op (including micro ops) rate (op/s)
host_tick_rate                              305294356                       # Simulator tick rate (ticks/s)
host_mem_usage                                 728848                       # Number of bytes of host memory used
host_seconds                                     2.61                       # Real time elapsed on the host
sim_insts                                    97982291                       # Number of instructions simulated
sim_ops                                      97982291                       # Number of ops (including micro ops) simulated
system.voltage_domain.voltage                       1                       # Voltage in Volts
system.clk_domain.clock                          1000                       # Clock period in ticks
system.mem_ctrls.bytes_read::switch_cpus.inst       311424                       # Number of bytes read from this memory
system.mem_ctrls.bytes_read::switch_cpus.data       176960                       # Number of bytes read from this memory
system.mem_ctrls.bytes_read::total             488384                       # Number of bytes read from this memory
system.mem_ctrls.bytes_inst_read::switch_cpus.inst       311424                       # Number of instructions bytes read from this memory
system.mem_ctrls.bytes_inst_read::total        311424                       # Number of instructions bytes read from this memory
system.mem_ctrls.bytes_written::writebacks        62656                       # Number of bytes written to this memory
system.mem_ctrls.bytes_written::total           62656                       # Number of bytes written to this memory
system.mem_ctrls.num_reads::switch_cpus.inst         4866                       # Number of read requests responded to by this memory
system.mem_ctrls.num_reads::switch_cpus.data         2765                       # Number of read requests responded to by this memory
system.mem_ctrls.num_reads::total                7631                       # Number of read requests responded to by this memory
system.mem_ctrls.num_writes::writebacks           979                       # Number of write requests responded to by this memory
system.mem_ctrls.num_writes::total                979                       # Number of write requests responded to by this memory
system.mem_ctrls.bw_read::switch_cpus.inst    391430913                       # Total read bandwidth from this memory (bytes/s)
system.mem_ctrls.bw_read::switch_cpus.data    222422210                       # Total read bandwidth from this memory (bytes/s)
system.mem_ctrls.bw_read::total             613853123                       # Total read bandwidth from this memory (bytes/s)
system.mem_ctrls.bw_inst_read::switch_cpus.inst    391430913                       # Instruction read bandwidth from this memory (bytes/s)
system.mem_ctrls.bw_inst_read::total        391430913                       # Instruction read bandwidth from this memory (bytes/s)
system.mem_ctrls.bw_write::writebacks        78752746                       # Write bandwidth from this memory (bytes/s)
system.mem_ctrls.bw_write::total             78752746                       # Write bandwidth from this memory (bytes/s)
system.mem_ctrls.bw_total::writebacks        78752746                       # Total bandwidth to/from this memory (bytes/s)
system.mem_ctrls.bw_total::switch_cpus.inst    391430913                       # Total bandwidth to/from this memory (bytes/s)
system.mem_ctrls.bw_total::switch_cpus.data    222422210                       # Total bandwidth to/from this memory (bytes/s)
system.mem_ctrls.bw_total::total            692605869                       # Total bandwidth to/from this memory (bytes/s)
system.mem_ctrls.readReqs                        7632                       # Number of read requests accepted
system.mem_ctrls.writeReqs                        979                       # Number of write requests accepted
system.mem_ctrls.readBursts                      7632                       # Number of DRAM read bursts, including those serviced by the write queue
system.mem_ctrls.writeBursts                      979                       # Number of DRAM write bursts, including those merged in the write queue
system.mem_ctrls.bytesReadDRAM                 485440                       # Total number of bytes read from DRAM
system.mem_ctrls.bytesReadWrQ                    3008                       # Total number of bytes read from write queue
system.mem_ctrls.bytesWritten                   61376                       # Total number of bytes written to DRAM
system.mem_ctrls.bytesReadSys                  488448                       # Total read bytes from the system interface side
system.mem_ctrls.bytesWrittenSys                62656                       # Total written bytes from the system interface side
system.mem_ctrls.servicedByWrQ                     47                       # Number of DRAM read bursts serviced by the write queue
system.mem_ctrls.mergedWrBursts                     1                       # Number of DRAM write bursts merged with an existing one
system.mem_ctrls.neitherReadNorWriteReqs            5                       # Number of requests that are neither read nor write
system.mem_ctrls.perBankRdBursts::0               852                       # Per bank write bursts
system.mem_ctrls.perBankRdBursts::1               357                       # Per bank write bursts
system.mem_ctrls.perBankRdBursts::2               386                       # Per bank write bursts
system.mem_ctrls.perBankRdBursts::3               265                       # Per bank write bursts
system.mem_ctrls.perBankRdBursts::4               333                       # Per bank write bursts
system.mem_ctrls.perBankRdBursts::5               370                       # Per bank write bursts
system.mem_ctrls.perBankRdBursts::6               352                       # Per bank write bursts
system.mem_ctrls.perBankRdBursts::7               448                       # Per bank write bursts
system.mem_ctrls.perBankRdBursts::8               651                       # Per bank write bursts
system.mem_ctrls.perBankRdBursts::9               429                       # Per bank write bursts
system.mem_ctrls.perBankRdBursts::10              548                       # Per bank write bursts
system.mem_ctrls.perBankRdBursts::11              647                       # Per bank write bursts
system.mem_ctrls.perBankRdBursts::12              616                       # Per bank write bursts
system.mem_ctrls.perBankRdBursts::13              743                       # Per bank write bursts
system.mem_ctrls.perBankRdBursts::14              264                       # Per bank write bursts
system.mem_ctrls.perBankRdBursts::15              324                       # Per bank write bursts
system.mem_ctrls.perBankWrBursts::0               150                       # Per bank write bursts
system.mem_ctrls.perBankWrBursts::1                49                       # Per bank write bursts
system.mem_ctrls.perBankWrBursts::2                32                       # Per bank write bursts
system.mem_ctrls.perBankWrBursts::3                48                       # Per bank write bursts
system.mem_ctrls.perBankWrBursts::4                77                       # Per bank write bursts
system.mem_ctrls.perBankWrBursts::5                82                       # Per bank write bursts
system.mem_ctrls.perBankWrBursts::6                97                       # Per bank write bursts
system.mem_ctrls.perBankWrBursts::7                36                       # Per bank write bursts
system.mem_ctrls.perBankWrBursts::8                46                       # Per bank write bursts
system.mem_ctrls.perBankWrBursts::9                29                       # Per bank write bursts
system.mem_ctrls.perBankWrBursts::10               20                       # Per bank write bursts
system.mem_ctrls.perBankWrBursts::11               82                       # Per bank write bursts
system.mem_ctrls.perBankWrBursts::12               45                       # Per bank write bursts
system.mem_ctrls.perBankWrBursts::13               81                       # Per bank write bursts
system.mem_ctrls.perBankWrBursts::14               48                       # Per bank write bursts
system.mem_ctrls.perBankWrBursts::15               37                       # Per bank write bursts
system.mem_ctrls.numRdRetry                         0                       # Number of times read queue was full causing retry
system.mem_ctrls.numWrRetry                         0                       # Number of times write queue was full causing retry
system.mem_ctrls.totGap                     795560000                       # Total gap between requests
system.mem_ctrls.readPktSize::0                     0                       # Read request sizes (log2)
system.mem_ctrls.readPktSize::1                     0                       # Read request sizes (log2)
system.mem_ctrls.readPktSize::2                     0                       # Read request sizes (log2)
system.mem_ctrls.readPktSize::3                     0                       # Read request sizes (log2)
system.mem_ctrls.readPktSize::4                     0                       # Read request sizes (log2)
system.mem_ctrls.readPktSize::5                     0                       # Read request sizes (log2)
system.mem_ctrls.readPktSize::6                  7632                       # Read request sizes (log2)
system.mem_ctrls.writePktSize::0                    0                       # Write request sizes (log2)
system.mem_ctrls.writePktSize::1                    0                       # Write request sizes (log2)
system.mem_ctrls.writePktSize::2                    0                       # Write request sizes (log2)
system.mem_ctrls.writePktSize::3                    0                       # Write request sizes (log2)
system.mem_ctrls.writePktSize::4                    0                       # Write request sizes (log2)
system.mem_ctrls.writePktSize::5                    0                       # Write request sizes (log2)
system.mem_ctrls.writePktSize::6                  979                       # Write request sizes (log2)
system.mem_ctrls.rdQLenPdf::0                    5402                       # What read queue length does an incoming req see
system.mem_ctrls.rdQLenPdf::1                    1691                       # What read queue length does an incoming req see
system.mem_ctrls.rdQLenPdf::2                     386                       # What read queue length does an incoming req see
system.mem_ctrls.rdQLenPdf::3                      97                       # What read queue length does an incoming req see
system.mem_ctrls.rdQLenPdf::4                       8                       # What read queue length does an incoming req see
system.mem_ctrls.rdQLenPdf::5                       1                       # What read queue length does an incoming req see
system.mem_ctrls.rdQLenPdf::6                       0                       # What read queue length does an incoming req see
system.mem_ctrls.rdQLenPdf::7                       0                       # What read queue length does an incoming req see
system.mem_ctrls.rdQLenPdf::8                       0                       # What read queue length does an incoming req see
system.mem_ctrls.rdQLenPdf::9                       0                       # What read queue length does an incoming req see
system.mem_ctrls.rdQLenPdf::10                      0                       # What read queue length does an incoming req see
system.mem_ctrls.rdQLenPdf::11                      0                       # What read queue length does an incoming req see
system.mem_ctrls.rdQLenPdf::12                      0                       # What read queue length does an incoming req see
system.mem_ctrls.rdQLenPdf::13                      0                       # What read queue length does an incoming req see
system.mem_ctrls.rdQLenPdf::14                      0                       # What read queue length does an incoming req see
system.mem_ctrls.rdQLenPdf::15                      0                       # What read queue length does an incoming req see
system.mem_ctrls.rdQLenPdf::16                      0                       # What read queue length does an incoming req see
system.mem_ctrls.rdQLenPdf::17                      0                       # What read queue length does an incoming req see
system.mem_ctrls.rdQLenPdf::18                      0                       # What read queue length does an incoming req see
system.mem_ctrls.rdQLenPdf::19                      0                       # What read queue length does an incoming req see
system.mem_ctrls.rdQLenPdf::20                      0                       # What read queue length does an incoming req see
system.mem_ctrls.rdQLenPdf::21                      0                       # What read queue length does an incoming req see
system.mem_ctrls.rdQLenPdf::22                      0                       # What read queue length does an incoming req see
system.mem_ctrls.rdQLenPdf::23                      0                       # What read queue length does an incoming req see
system.mem_ctrls.rdQLenPdf::24                      0                       # What read queue length does an incoming req see
system.mem_ctrls.rdQLenPdf::25                      0                       # What read queue length does an incoming req see
system.mem_ctrls.rdQLenPdf::26                      0                       # What read queue length does an incoming req see
system.mem_ctrls.rdQLenPdf::27                      0                       # What read queue length does an incoming req see
system.mem_ctrls.rdQLenPdf::28                      0                       # What read queue length does an incoming req see
system.mem_ctrls.rdQLenPdf::29                      0                       # What read queue length does an incoming req see
system.mem_ctrls.rdQLenPdf::30                      0                       # What read queue length does an incoming req see
system.mem_ctrls.rdQLenPdf::31                      0                       # What read queue length does an incoming req see
system.mem_ctrls.wrQLenPdf::0                       1                       # What write queue length does an incoming req see
system.mem_ctrls.wrQLenPdf::1                       1                       # What write queue length does an incoming req see
system.mem_ctrls.wrQLenPdf::2                       1                       # What write queue length does an incoming req see
system.mem_ctrls.wrQLenPdf::3                       1                       # What write queue length does an incoming req see
system.mem_ctrls.wrQLenPdf::4                       1                       # What write queue length does an incoming req see
system.mem_ctrls.wrQLenPdf::5                       1                       # What write queue length does an incoming req see
system.mem_ctrls.wrQLenPdf::6                       1                       # What write queue length does an incoming req see
system.mem_ctrls.wrQLenPdf::7                       1                       # What write queue length does an incoming req see
system.mem_ctrls.wrQLenPdf::8                       1                       # What write queue length does an incoming req see
system.mem_ctrls.wrQLenPdf::9                       1                       # What write queue length does an incoming req see
system.mem_ctrls.wrQLenPdf::10                      1                       # What write queue length does an incoming req see
system.mem_ctrls.wrQLenPdf::11                      1                       # What write queue length does an incoming req see
system.mem_ctrls.wrQLenPdf::12                      1                       # What write queue length does an incoming req see
system.mem_ctrls.wrQLenPdf::13                      1                       # What write queue length does an incoming req see
system.mem_ctrls.wrQLenPdf::14                      1                       # What write queue length does an incoming req see
system.mem_ctrls.wrQLenPdf::15                     20                       # What write queue length does an incoming req see
system.mem_ctrls.wrQLenPdf::16                     22                       # What write queue length does an incoming req see
system.mem_ctrls.wrQLenPdf::17                     51                       # What write queue length does an incoming req see
system.mem_ctrls.wrQLenPdf::18                     57                       # What write queue length does an incoming req see
system.mem_ctrls.wrQLenPdf::19                     57                       # What write queue length does an incoming req see
system.mem_ctrls.wrQLenPdf::20                     61                       # What write queue length does an incoming req see
system.mem_ctrls.wrQLenPdf::21                     58                       # What write queue length does an incoming req see
system.mem_ctrls.wrQLenPdf::22                     58                       # What write queue length does an incoming req see
system.mem_ctrls.wrQLenPdf::23                     59                       # What write queue length does an incoming req see
system.mem_ctrls.wrQLenPdf::24                     58                       # What write queue length does an incoming req see
system.mem_ctrls.wrQLenPdf::25                     57                       # What write queue length does an incoming req see
system.mem_ctrls.wrQLenPdf::26                     57                       # What write queue length does an incoming req see
system.mem_ctrls.wrQLenPdf::27                     58                       # What write queue length does an incoming req see
system.mem_ctrls.wrQLenPdf::28                     59                       # What write queue length does an incoming req see
system.mem_ctrls.wrQLenPdf::29                     60                       # What write queue length does an incoming req see
system.mem_ctrls.wrQLenPdf::30                     57                       # What write queue length does an incoming req see
system.mem_ctrls.wrQLenPdf::31                     57                       # What write queue length does an incoming req see
system.mem_ctrls.wrQLenPdf::32                     57                       # What write queue length does an incoming req see
system.mem_ctrls.wrQLenPdf::33                      0                       # What write queue length does an incoming req see
system.mem_ctrls.wrQLenPdf::34                      0                       # What write queue length does an incoming req see
system.mem_ctrls.wrQLenPdf::35                      0                       # What write queue length does an incoming req see
system.mem_ctrls.wrQLenPdf::36                      0                       # What write queue length does an incoming req see
system.mem_ctrls.wrQLenPdf::37                      0                       # What write queue length does an incoming req see
system.mem_ctrls.wrQLenPdf::38                      0                       # What write queue length does an incoming req see
system.mem_ctrls.wrQLenPdf::39                      0                       # What write queue length does an incoming req see
system.mem_ctrls.wrQLenPdf::40                      0                       # What write queue length does an incoming req see
system.mem_ctrls.wrQLenPdf::41                      0                       # What write queue length does an incoming req see
system.mem_ctrls.wrQLenPdf::42                      0                       # What write queue length does an incoming req see
system.mem_ctrls.wrQLenPdf::43                      0                       # What write queue length does an incoming req see
system.mem_ctrls.wrQLenPdf::44                      0                       # What write queue length does an incoming req see
system.mem_ctrls.wrQLenPdf::45                      0                       # What write queue length does an incoming req see
system.mem_ctrls.wrQLenPdf::46                      0                       # What write queue length does an incoming req see
system.mem_ctrls.wrQLenPdf::47                      0                       # What write queue length does an incoming req see
system.mem_ctrls.wrQLenPdf::48                      0                       # What write queue length does an incoming req see
system.mem_ctrls.wrQLenPdf::49                      0                       # What write queue length does an incoming req see
system.mem_ctrls.wrQLenPdf::50                      0                       # What write queue length does an incoming req see
system.mem_ctrls.wrQLenPdf::51                      0                       # What write queue length does an incoming req see
system.mem_ctrls.wrQLenPdf::52                      0                       # What write queue length does an incoming req see
system.mem_ctrls.wrQLenPdf::53                      0                       # What write queue length does an incoming req see
system.mem_ctrls.wrQLenPdf::54                      0                       # What write queue length does an incoming req see
system.mem_ctrls.wrQLenPdf::55                      0                       # What write queue length does an incoming req see
system.mem_ctrls.wrQLenPdf::56                      0                       # What write queue length does an incoming req see
system.mem_ctrls.wrQLenPdf::57                      0                       # What write queue length does an incoming req see
system.mem_ctrls.wrQLenPdf::58                      0                       # What write queue length does an incoming req see
system.mem_ctrls.wrQLenPdf::59                      0                       # What write queue length does an incoming req see
system.mem_ctrls.wrQLenPdf::60                      0                       # What write queue length does an incoming req see
system.mem_ctrls.wrQLenPdf::61                      0                       # What write queue length does an incoming req see
system.mem_ctrls.wrQLenPdf::62                      0                       # What write queue length does an incoming req see
system.mem_ctrls.wrQLenPdf::63                      0                       # What write queue length does an incoming req see
system.mem_ctrls.bytesPerActivate::samples         2923                       # Bytes accessed per row activation
system.mem_ctrls.bytesPerActivate::mean    186.635648                       # Bytes accessed per row activation
system.mem_ctrls.bytesPerActivate::gmean   125.862888                       # Bytes accessed per row activation
system.mem_ctrls.bytesPerActivate::stdev   211.829215                       # Bytes accessed per row activation
system.mem_ctrls.bytesPerActivate::0-127         1420     48.58%     48.58% # Bytes accessed per row activation
system.mem_ctrls.bytesPerActivate::128-255          844     28.87%     77.45% # Bytes accessed per row activation
system.mem_ctrls.bytesPerActivate::256-383          277      9.48%     86.93% # Bytes accessed per row activation
system.mem_ctrls.bytesPerActivate::384-511          129      4.41%     91.34% # Bytes accessed per row activation
system.mem_ctrls.bytesPerActivate::512-639           80      2.74%     94.08% # Bytes accessed per row activation
system.mem_ctrls.bytesPerActivate::640-767           38      1.30%     95.38% # Bytes accessed per row activation
system.mem_ctrls.bytesPerActivate::768-895           33      1.13%     96.51% # Bytes accessed per row activation
system.mem_ctrls.bytesPerActivate::896-1023           27      0.92%     97.43% # Bytes accessed per row activation
system.mem_ctrls.bytesPerActivate::1024-1151           75      2.57%    100.00% # Bytes accessed per row activation
system.mem_ctrls.bytesPerActivate::total         2923                       # Bytes accessed per row activation
system.mem_ctrls.rdPerTurnAround::samples           57                       # Reads before turning the bus around for writes
system.mem_ctrls.rdPerTurnAround::mean     132.368421                       # Reads before turning the bus around for writes
system.mem_ctrls.rdPerTurnAround::gmean    120.685561                       # Reads before turning the bus around for writes
system.mem_ctrls.rdPerTurnAround::stdev     56.556114                       # Reads before turning the bus around for writes
system.mem_ctrls.rdPerTurnAround::16-31             1      1.75%      1.75% # Reads before turning the bus around for writes
system.mem_ctrls.rdPerTurnAround::32-47             2      3.51%      5.26% # Reads before turning the bus around for writes
system.mem_ctrls.rdPerTurnAround::48-63             4      7.02%     12.28% # Reads before turning the bus around for writes
system.mem_ctrls.rdPerTurnAround::64-79             1      1.75%     14.04% # Reads before turning the bus around for writes
system.mem_ctrls.rdPerTurnAround::80-95             4      7.02%     21.05% # Reads before turning the bus around for writes
system.mem_ctrls.rdPerTurnAround::96-111            4      7.02%     28.07% # Reads before turning the bus around for writes
system.mem_ctrls.rdPerTurnAround::112-127            7     12.28%     40.35% # Reads before turning the bus around for writes
system.mem_ctrls.rdPerTurnAround::128-143           18     31.58%     71.93% # Reads before turning the bus around for writes
system.mem_ctrls.rdPerTurnAround::144-159            4      7.02%     78.95% # Reads before turning the bus around for writes
system.mem_ctrls.rdPerTurnAround::160-175            4      7.02%     85.96% # Reads before turning the bus around for writes
system.mem_ctrls.rdPerTurnAround::176-191            3      5.26%     91.23% # Reads before turning the bus around for writes
system.mem_ctrls.rdPerTurnAround::192-207            1      1.75%     92.98% # Reads before turning the bus around for writes
system.mem_ctrls.rdPerTurnAround::208-223            1      1.75%     94.74% # Reads before turning the bus around for writes
system.mem_ctrls.rdPerTurnAround::272-287            1      1.75%     96.49% # Reads before turning the bus around for writes
system.mem_ctrls.rdPerTurnAround::288-303            1      1.75%     98.25% # Reads before turning the bus around for writes
system.mem_ctrls.rdPerTurnAround::320-335            1      1.75%    100.00% # Reads before turning the bus around for writes
system.mem_ctrls.rdPerTurnAround::total            57                       # Reads before turning the bus around for writes
system.mem_ctrls.wrPerTurnAround::samples           57                       # Writes before turning the bus around for reads
system.mem_ctrls.wrPerTurnAround::mean      16.824561                       # Writes before turning the bus around for reads
system.mem_ctrls.wrPerTurnAround::gmean     16.782993                       # Writes before turning the bus around for reads
system.mem_ctrls.wrPerTurnAround::stdev      1.226534                       # Writes before turning the bus around for reads
system.mem_ctrls.wrPerTurnAround::16               37     64.91%     64.91% # Writes before turning the bus around for reads
system.mem_ctrls.wrPerTurnAround::18               16     28.07%     92.98% # Writes before turning the bus around for reads
system.mem_ctrls.wrPerTurnAround::19                2      3.51%     96.49% # Writes before turning the bus around for reads
system.mem_ctrls.wrPerTurnAround::20                1      1.75%     98.25% # Writes before turning the bus around for reads
system.mem_ctrls.wrPerTurnAround::21                1      1.75%    100.00% # Writes before turning the bus around for reads
system.mem_ctrls.wrPerTurnAround::total            57                       # Writes before turning the bus around for reads
system.mem_ctrls.totQLat                     95739000                       # Total ticks spent queuing
system.mem_ctrls.totMemAccLat               237957750                       # Total ticks spent from burst creation until serviced by the DRAM
system.mem_ctrls.totBusLat                   37925000                       # Total ticks spent in databus transfers
system.mem_ctrls.avgQLat                     12622.15                       # Average queueing delay per DRAM burst
system.mem_ctrls.avgBusLat                    5000.00                       # Average bus latency per DRAM burst
system.mem_ctrls.avgMemAccLat                31372.15                       # Average memory access latency per DRAM burst
system.mem_ctrls.avgRdBW                       610.15                       # Average DRAM read bandwidth in MiByte/s
system.mem_ctrls.avgWrBW                        77.14                       # Average achieved write bandwidth in MiByte/s
system.mem_ctrls.avgRdBWSys                    613.93                       # Average system read bandwidth in MiByte/s
system.mem_ctrls.avgWrBWSys                     78.75                       # Average system write bandwidth in MiByte/s
system.mem_ctrls.peakBW                      12800.00                       # Theoretical peak bandwidth in MiByte/s
system.mem_ctrls.busUtil                         5.37                       # Data bus utilization in percentage
system.mem_ctrls.busUtilRead                     4.77                       # Data bus utilization in percentage for reads
system.mem_ctrls.busUtilWrite                    0.60                       # Data bus utilization in percentage for writes
system.mem_ctrls.avgRdQLen                       1.30                       # Average read queue length when enqueuing
system.mem_ctrls.avgWrQLen                      25.15                       # Average write queue length when enqueuing
system.mem_ctrls.readRowHits                     5154                       # Number of row buffer hits during reads
system.mem_ctrls.writeRowHits                     464                       # Number of row buffer hits during writes
system.mem_ctrls.readRowHitRate                 67.95                       # Row buffer hit rate for reads
system.mem_ctrls.writeRowHitRate                47.44                       # Row buffer hit rate for writes
system.mem_ctrls.avgGap                      92388.81                       # Average gap between requests
system.mem_ctrls.pageHitRate                    65.61                       # Row buffer hit rate, read and write combined
system.mem_ctrls_0.actEnergy                  9639000                       # Energy for activate commands per rank (pJ)
system.mem_ctrls_0.preEnergy                  5259375                       # Energy for precharge commands per rank (pJ)
system.mem_ctrls_0.readEnergy                26184600                       # Energy for read commands per rank (pJ)
system.mem_ctrls_0.writeEnergy                3700080                       # Energy for write commands per rank (pJ)
system.mem_ctrls_0.refreshEnergy             51873120                       # Energy for refresh commands per rank (pJ)
system.mem_ctrls_0.actBackEnergy            482889465                       # Energy for active background per rank (pJ)
system.mem_ctrls_0.preBackEnergy             53087250                       # Energy for precharge background per rank (pJ)
system.mem_ctrls_0.totalEnergy              632632890                       # Total energy per rank (pJ)
system.mem_ctrls_0.averagePower            796.308034                       # Core power per rank (mW)
system.mem_ctrls_0.memoryStateTime::IDLE     85591500                       # Time in different power states
system.mem_ctrls_0.memoryStateTime::REF      26520000                       # Time in different power states
system.mem_ctrls_0.memoryStateTime::PRE_PDN            0                       # Time in different power states
system.mem_ctrls_0.memoryStateTime::ACT     682359750                       # Time in different power states
system.mem_ctrls_0.memoryStateTime::ACT_PDN            0                       # Time in different power states
system.mem_ctrls_1.actEnergy                 12458880                       # Energy for activate commands per rank (pJ)
system.mem_ctrls_1.preEnergy                  6798000                       # Energy for precharge commands per rank (pJ)
system.mem_ctrls_1.readEnergy                32822400                       # Energy for read commands per rank (pJ)
system.mem_ctrls_1.writeEnergy                2514240                       # Energy for write commands per rank (pJ)
system.mem_ctrls_1.refreshEnergy             51873120                       # Energy for refresh commands per rank (pJ)
system.mem_ctrls_1.actBackEnergy            515016090                       # Energy for active background per rank (pJ)
system.mem_ctrls_1.preBackEnergy             24906000                       # Energy for precharge background per rank (pJ)
system.mem_ctrls_1.totalEnergy              646388730                       # Total energy per rank (pJ)
system.mem_ctrls_1.averagePower            813.622793                       # Core power per rank (mW)
system.mem_ctrls_1.memoryStateTime::IDLE     38950750                       # Time in different power states
system.mem_ctrls_1.memoryStateTime::REF      26520000                       # Time in different power states
system.mem_ctrls_1.memoryStateTime::PRE_PDN            0                       # Time in different power states
system.mem_ctrls_1.memoryStateTime::ACT     729583250                       # Time in different power states
system.mem_ctrls_1.memoryStateTime::ACT_PDN            0                       # Time in different power states
system.cpu_voltage_domain.voltage                   1                       # Voltage in Volts
system.cpu_clk_domain.clock                       500                       # Clock period in ticks
system.cpu.dtb.fetch_hits                           0                       # ITB hits
system.cpu.dtb.fetch_misses                         0                       # ITB misses
system.cpu.dtb.fetch_acv                            0                       # ITB acv
system.cpu.dtb.fetch_accesses                       0                       # ITB accesses
system.cpu.dtb.read_hits                            0                       # DTB read hits
system.cpu.dtb.read_misses                          0                       # DTB read misses
system.cpu.dtb.read_acv                             0                       # DTB read access violations
system.cpu.dtb.read_accesses                        0                       # DTB read accesses
system.cpu.dtb.write_hits                           0                       # DTB write hits
system.cpu.dtb.write_misses                         0                       # DTB write misses
system.cpu.dtb.write_acv                            0                       # DTB write access violations
system.cpu.dtb.write_accesses                       0                       # DTB write accesses
system.cpu.dtb.data_hits                            0                       # DTB hits
system.cpu.dtb.data_misses                          0                       # DTB misses
system.cpu.dtb.data_acv                             0                       # DTB access violations
system.cpu.dtb.data_accesses                        0                       # DTB accesses
system.cpu.itb.fetch_hits                           0                       # ITB hits
system.cpu.itb.fetch_misses                         0                       # ITB misses
system.cpu.itb.fetch_acv                            0                       # ITB acv
system.cpu.itb.fetch_accesses                       0                       # ITB accesses
system.cpu.itb.read_hits                            0                       # DTB read hits
system.cpu.itb.read_misses                          0                       # DTB read misses
system.cpu.itb.read_acv                             0                       # DTB read access violations
system.cpu.itb.read_accesses                        0                       # DTB read accesses
system.cpu.itb.write_hits                           0                       # DTB write hits
system.cpu.itb.write_misses                         0                       # DTB write misses
system.cpu.itb.write_acv                            0                       # DTB write access violations
system.cpu.itb.write_accesses                       0                       # DTB write accesses
system.cpu.itb.data_hits                            0                       # DTB hits
system.cpu.itb.data_misses                          0                       # DTB misses
system.cpu.itb.data_acv                             0                       # DTB access violations
system.cpu.itb.data_accesses                        0                       # DTB accesses
system.cpu.numCycles                                0                       # number of cpu cycles simulated
system.cpu.numWorkItemsStarted                      0                       # number of work items this cpu started
system.cpu.numWorkItemsCompleted                    0                       # number of work items this cpu completed
system.cpu.committedInsts                           0                       # Number of instructions committed
system.cpu.committedOps                             0                       # Number of ops (including micro ops) committed
system.cpu.num_int_alu_accesses                     0                       # Number of integer alu accesses
system.cpu.num_fp_alu_accesses                      0                       # Number of float alu accesses
system.cpu.num_func_calls                           0                       # number of times a function call or return occured
system.cpu.num_conditional_control_insts            0                       # number of instructions that are conditional controls
system.cpu.num_int_insts                            0                       # number of integer instructions
system.cpu.num_fp_insts                             0                       # number of float instructions
system.cpu.num_int_register_reads                   0                       # number of times the integer registers were read
system.cpu.num_int_register_writes                  0                       # number of times the integer registers were written
system.cpu.num_fp_register_reads                    0                       # number of times the floating registers were read
system.cpu.num_fp_register_writes                   0                       # number of times the floating registers were written
system.cpu.num_mem_refs                             0                       # number of memory refs
system.cpu.num_load_insts                           0                       # Number of load instructions
system.cpu.num_store_insts                          0                       # Number of store instructions
system.cpu.num_idle_cycles                          0                       # Number of idle cycles
system.cpu.num_busy_cycles                          0                       # Number of busy cycles
system.cpu.not_idle_fraction                        1                       # Percentage of non-idle cycles
system.cpu.idle_fraction                            0                       # Percentage of idle cycles
system.cpu.op_class::No_OpClass                     0                       # Class of executed instruction
system.cpu.op_class::IntAlu                         0                       # Class of executed instruction
system.cpu.op_class::IntMult                        0                       # Class of executed instruction
system.cpu.op_class::IntDiv                         0                       # Class of executed instruction
system.cpu.op_class::FloatAdd                       0                       # Class of executed instruction
system.cpu.op_class::FloatCmp                       0                       # Class of executed instruction
system.cpu.op_class::FloatCvt                       0                       # Class of executed instruction
system.cpu.op_class::FloatMult                      0                       # Class of executed instruction
system.cpu.op_class::FloatDiv                       0                       # Class of executed instruction
system.cpu.op_class::FloatSqrt                      0                       # Class of executed instruction
system.cpu.op_class::SimdAdd                        0                       # Class of executed instruction
system.cpu.op_class::SimdAddAcc                     0                       # Class of executed instruction
system.cpu.op_class::SimdAlu                        0                       # Class of executed instruction
system.cpu.op_class::SimdCmp                        0                       # Class of executed instruction
system.cpu.op_class::SimdCvt                        0                       # Class of executed instruction
system.cpu.op_class::SimdMisc                       0                       # Class of executed instruction
system.cpu.op_class::SimdMult                       0                       # Class of executed instruction
system.cpu.op_class::SimdMultAcc                    0                       # Class of executed instruction
system.cpu.op_class::SimdShift                      0                       # Class of executed instruction
system.cpu.op_class::SimdShiftAcc                   0                       # Class of executed instruction
system.cpu.op_class::SimdSqrt                       0                       # Class of executed instruction
system.cpu.op_class::SimdFloatAdd                   0                       # Class of executed instruction
system.cpu.op_class::SimdFloatAlu                   0                       # Class of executed instruction
system.cpu.op_class::SimdFloatCmp                   0                       # Class of executed instruction
system.cpu.op_class::SimdFloatCvt                   0                       # Class of executed instruction
system.cpu.op_class::SimdFloatDiv                   0                       # Class of executed instruction
system.cpu.op_class::SimdFloatMisc                  0                       # Class of executed instruction
system.cpu.op_class::SimdFloatMult                  0                       # Class of executed instruction
system.cpu.op_class::SimdFloatMultAcc               0                       # Class of executed instruction
system.cpu.op_class::SimdFloatSqrt                  0                       # Class of executed instruction
system.cpu.op_class::MemRead                        0                       # Class of executed instruction
system.cpu.op_class::MemWrite                       0                       # Class of executed instruction
system.cpu.op_class::IprAccess                      0                       # Class of executed instruction
system.cpu.op_class::InstPrefetch                   0                       # Class of executed instruction
system.cpu.op_class::total                          0                       # Class of executed instruction
system.cpu.kern.inst.arm                            0                       # number of arm instructions executed
system.cpu.kern.inst.quiesce                        0                       # number of quiesce instructions executed
system.cpu.kern.inst.hwrei                       2781                       # number of hwrei instructions executed
system.cpu.kern.ipl_count::0                      635     49.15%     49.15% # number of times we switched to this ipl
system.cpu.kern.ipl_count::22                       1      0.08%     49.23% # number of times we switched to this ipl
system.cpu.kern.ipl_count::31                     656     50.77%    100.00% # number of times we switched to this ipl
system.cpu.kern.ipl_count::total                 1292                       # number of times we switched to this ipl
system.cpu.kern.ipl_good::0                       633     49.96%     49.96% # number of times we switched to this ipl from a different ipl
system.cpu.kern.ipl_good::22                        1      0.08%     50.04% # number of times we switched to this ipl from a different ipl
system.cpu.kern.ipl_good::31                      633     49.96%    100.00% # number of times we switched to this ipl from a different ipl
system.cpu.kern.ipl_good::total                  1267                       # number of times we switched to this ipl from a different ipl
system.cpu.kern.ipl_ticks::0                712814500     89.69%     89.69% # number of cycles we spent at this ipl
system.cpu.kern.ipl_ticks::22                 1232500      0.16%     89.85% # number of cycles we spent at this ipl
system.cpu.kern.ipl_ticks::31                80676000     10.15%    100.00% # number of cycles we spent at this ipl
system.cpu.kern.ipl_ticks::total            794723000                       # number of cycles we spent at this ipl
system.cpu.kern.ipl_used::0                  0.996850                       # fraction of swpipl calls that actually changed the ipl
system.cpu.kern.ipl_used::22                        1                       # fraction of swpipl calls that actually changed the ipl
system.cpu.kern.ipl_used::31                 0.964939                       # fraction of swpipl calls that actually changed the ipl
system.cpu.kern.ipl_used::total              0.980650                       # fraction of swpipl calls that actually changed the ipl
system.cpu.kern.syscall::2                          1      5.56%      5.56% # number of syscalls executed
system.cpu.kern.syscall::3                          2     11.11%     16.67% # number of syscalls executed
system.cpu.kern.syscall::6                          2     11.11%     27.78% # number of syscalls executed
system.cpu.kern.syscall::17                         1      5.56%     33.33% # number of syscalls executed
system.cpu.kern.syscall::19                         1      5.56%     38.89% # number of syscalls executed
system.cpu.kern.syscall::33                         1      5.56%     44.44% # number of syscalls executed
system.cpu.kern.syscall::45                         3     16.67%     61.11% # number of syscalls executed
system.cpu.kern.syscall::48                         1      5.56%     66.67% # number of syscalls executed
system.cpu.kern.syscall::59                         1      5.56%     72.22% # number of syscalls executed
system.cpu.kern.syscall::71                         4     22.22%     94.44% # number of syscalls executed
system.cpu.kern.syscall::74                         1      5.56%    100.00% # number of syscalls executed
system.cpu.kern.syscall::total                     18                       # number of syscalls executed
system.cpu.kern.callpal::swpctx                   118      8.10%      8.10% # number of callpals executed
system.cpu.kern.callpal::tbi                        6      0.41%      8.51% # number of callpals executed
system.cpu.kern.callpal::swpipl                  1107     75.98%     84.49% # number of callpals executed
system.cpu.kern.callpal::rdps                       3      0.21%     84.69% # number of callpals executed
system.cpu.kern.callpal::wrusp                      1      0.07%     84.76% # number of callpals executed
system.cpu.kern.callpal::rdusp                      1      0.07%     84.83% # number of callpals executed
system.cpu.kern.callpal::rti                      184     12.63%     97.46% # number of callpals executed
system.cpu.kern.callpal::callsys                   33      2.26%     99.73% # number of callpals executed
system.cpu.kern.callpal::imb                        4      0.27%    100.00% # number of callpals executed
system.cpu.kern.callpal::total                   1457                       # number of callpals executed
system.cpu.kern.mode_switch::kernel               302                       # number of protection mode switches
system.cpu.kern.mode_switch::user                 181                       # number of protection mode switches
system.cpu.kern.mode_switch::idle                   0                       # number of protection mode switches
system.cpu.kern.mode_good::kernel                 181                      
system.cpu.kern.mode_good::user                   181                      
system.cpu.kern.mode_good::idle                     0                      
system.cpu.kern.mode_switch_good::kernel     0.599338                       # fraction of useful protection mode switches
system.cpu.kern.mode_switch_good::user              1                       # fraction of useful protection mode switches
system.cpu.kern.mode_switch_good::idle            nan                       # fraction of useful protection mode switches
system.cpu.kern.mode_switch_good::total      0.749482                       # fraction of useful protection mode switches
system.cpu.kern.mode_ticks::kernel          538875500     67.81%     67.81% # number of ticks spent at the given mode
system.cpu.kern.mode_ticks::user            255840500     32.19%    100.00% # number of ticks spent at the given mode
system.cpu.kern.mode_ticks::idle                    0      0.00%    100.00% # number of ticks spent at the given mode
system.cpu.kern.swap_context                      118                       # number of times the context was actually changed
system.cpu.dcache.tags.replacements             18297                       # number of replacements
system.cpu.dcache.tags.tagsinuse                  512                       # Cycle average of tags in use
system.cpu.dcache.tags.total_refs              198951                       # Total number of references to valid blocks.
system.cpu.dcache.tags.sampled_refs             18297                       # Sample count of references to valid blocks.
system.cpu.dcache.tags.avg_refs             10.873422                       # Average number of references to valid blocks.
system.cpu.dcache.tags.warmup_cycle                 0                       # Cycle when the warmup percentage was hit.
system.cpu.dcache.tags.occ_blocks::cpu.data    28.495841                       # Average occupied blocks per requestor
system.cpu.dcache.tags.occ_blocks::switch_cpus.data   483.504159                       # Average occupied blocks per requestor
system.cpu.dcache.tags.occ_percent::cpu.data     0.055656                       # Average percentage of cache occupancy
system.cpu.dcache.tags.occ_percent::switch_cpus.data     0.944344                       # Average percentage of cache occupancy
system.cpu.dcache.tags.occ_percent::total            1                       # Average percentage of cache occupancy
system.cpu.dcache.tags.occ_task_id_blocks::1024          512                       # Occupied blocks per task id
system.cpu.dcache.tags.age_task_id_blocks_1024::0          431                       # Occupied blocks per task id
system.cpu.dcache.tags.age_task_id_blocks_1024::1           80                       # Occupied blocks per task id
system.cpu.dcache.tags.age_task_id_blocks_1024::2            1                       # Occupied blocks per task id
system.cpu.dcache.tags.occ_task_id_percent::1024            1                       # Percentage of cache occupancy per task id
system.cpu.dcache.tags.tag_accesses           1178629                       # Number of tag accesses
system.cpu.dcache.tags.data_accesses          1178629                       # Number of data accesses
system.cpu.dcache.ReadReq_hits::switch_cpus.data       132590                       # number of ReadReq hits
system.cpu.dcache.ReadReq_hits::total          132590                       # number of ReadReq hits
system.cpu.dcache.WriteReq_hits::switch_cpus.data        58811                       # number of WriteReq hits
system.cpu.dcache.WriteReq_hits::total          58811                       # number of WriteReq hits
system.cpu.dcache.LoadLockedReq_hits::switch_cpus.data         2226                       # number of LoadLockedReq hits
system.cpu.dcache.LoadLockedReq_hits::total         2226                       # number of LoadLockedReq hits
system.cpu.dcache.StoreCondReq_hits::switch_cpus.data         2378                       # number of StoreCondReq hits
system.cpu.dcache.StoreCondReq_hits::total         2378                       # number of StoreCondReq hits
system.cpu.dcache.demand_hits::switch_cpus.data       191401                       # number of demand (read+write) hits
system.cpu.dcache.demand_hits::total           191401                       # number of demand (read+write) hits
system.cpu.dcache.overall_hits::switch_cpus.data       191401                       # number of overall hits
system.cpu.dcache.overall_hits::total          191401                       # number of overall hits
system.cpu.dcache.ReadReq_misses::switch_cpus.data        26229                       # number of ReadReq misses
system.cpu.dcache.ReadReq_misses::total         26229                       # number of ReadReq misses
system.cpu.dcache.WriteReq_misses::switch_cpus.data        67453                       # number of WriteReq misses
system.cpu.dcache.WriteReq_misses::total        67453                       # number of WriteReq misses
system.cpu.dcache.LoadLockedReq_misses::switch_cpus.data          396                       # number of LoadLockedReq misses
system.cpu.dcache.LoadLockedReq_misses::total          396                       # number of LoadLockedReq misses
system.cpu.dcache.demand_misses::switch_cpus.data        93682                       # number of demand (read+write) misses
system.cpu.dcache.demand_misses::total          93682                       # number of demand (read+write) misses
system.cpu.dcache.overall_misses::switch_cpus.data        93682                       # number of overall misses
system.cpu.dcache.overall_misses::total         93682                       # number of overall misses
system.cpu.dcache.ReadReq_miss_latency::switch_cpus.data    741379252                       # number of ReadReq miss cycles
system.cpu.dcache.ReadReq_miss_latency::total    741379252                       # number of ReadReq miss cycles
system.cpu.dcache.WriteReq_miss_latency::switch_cpus.data   1061716204                       # number of WriteReq miss cycles
system.cpu.dcache.WriteReq_miss_latency::total   1061716204                       # number of WriteReq miss cycles
system.cpu.dcache.LoadLockedReq_miss_latency::switch_cpus.data     10836750                       # number of LoadLockedReq miss cycles
system.cpu.dcache.LoadLockedReq_miss_latency::total     10836750                       # number of LoadLockedReq miss cycles
system.cpu.dcache.demand_miss_latency::switch_cpus.data   1803095456                       # number of demand (read+write) miss cycles
system.cpu.dcache.demand_miss_latency::total   1803095456                       # number of demand (read+write) miss cycles
system.cpu.dcache.overall_miss_latency::switch_cpus.data   1803095456                       # number of overall miss cycles
system.cpu.dcache.overall_miss_latency::total   1803095456                       # number of overall miss cycles
system.cpu.dcache.ReadReq_accesses::switch_cpus.data       158819                       # number of ReadReq accesses(hits+misses)
system.cpu.dcache.ReadReq_accesses::total       158819                       # number of ReadReq accesses(hits+misses)
system.cpu.dcache.WriteReq_accesses::switch_cpus.data       126264                       # number of WriteReq accesses(hits+misses)
system.cpu.dcache.WriteReq_accesses::total       126264                       # number of WriteReq accesses(hits+misses)
system.cpu.dcache.LoadLockedReq_accesses::switch_cpus.data         2622                       # number of LoadLockedReq accesses(hits+misses)
system.cpu.dcache.LoadLockedReq_accesses::total         2622                       # number of LoadLockedReq accesses(hits+misses)
system.cpu.dcache.StoreCondReq_accesses::switch_cpus.data         2378                       # number of StoreCondReq accesses(hits+misses)
system.cpu.dcache.StoreCondReq_accesses::total         2378                       # number of StoreCondReq accesses(hits+misses)
system.cpu.dcache.demand_accesses::switch_cpus.data       285083                       # number of demand (read+write) accesses
system.cpu.dcache.demand_accesses::total       285083                       # number of demand (read+write) accesses
system.cpu.dcache.overall_accesses::switch_cpus.data       285083                       # number of overall (read+write) accesses
system.cpu.dcache.overall_accesses::total       285083                       # number of overall (read+write) accesses
system.cpu.dcache.ReadReq_miss_rate::switch_cpus.data     0.165150                       # miss rate for ReadReq accesses
system.cpu.dcache.ReadReq_miss_rate::total     0.165150                       # miss rate for ReadReq accesses
system.cpu.dcache.WriteReq_miss_rate::switch_cpus.data     0.534222                       # miss rate for WriteReq accesses
system.cpu.dcache.WriteReq_miss_rate::total     0.534222                       # miss rate for WriteReq accesses
system.cpu.dcache.LoadLockedReq_miss_rate::switch_cpus.data     0.151030                       # miss rate for LoadLockedReq accesses
system.cpu.dcache.LoadLockedReq_miss_rate::total     0.151030                       # miss rate for LoadLockedReq accesses
system.cpu.dcache.demand_miss_rate::switch_cpus.data     0.328613                       # miss rate for demand accesses
system.cpu.dcache.demand_miss_rate::total     0.328613                       # miss rate for demand accesses
system.cpu.dcache.overall_miss_rate::switch_cpus.data     0.328613                       # miss rate for overall accesses
system.cpu.dcache.overall_miss_rate::total     0.328613                       # miss rate for overall accesses
system.cpu.dcache.ReadReq_avg_miss_latency::switch_cpus.data 28265.631629                       # average ReadReq miss latency
system.cpu.dcache.ReadReq_avg_miss_latency::total 28265.631629                       # average ReadReq miss latency
system.cpu.dcache.WriteReq_avg_miss_latency::switch_cpus.data 15740.088714                       # average WriteReq miss latency
system.cpu.dcache.WriteReq_avg_miss_latency::total 15740.088714                       # average WriteReq miss latency
system.cpu.dcache.LoadLockedReq_avg_miss_latency::switch_cpus.data 27365.530303                       # average LoadLockedReq miss latency
system.cpu.dcache.LoadLockedReq_avg_miss_latency::total 27365.530303                       # average LoadLockedReq miss latency
system.cpu.dcache.demand_avg_miss_latency::switch_cpus.data 19246.978673                       # average overall miss latency
system.cpu.dcache.demand_avg_miss_latency::total 19246.978673                       # average overall miss latency
system.cpu.dcache.overall_avg_miss_latency::switch_cpus.data 19246.978673                       # average overall miss latency
system.cpu.dcache.overall_avg_miss_latency::total 19246.978673                       # average overall miss latency
system.cpu.dcache.blocked_cycles::no_mshrs        43174                       # number of cycles access was blocked
system.cpu.dcache.blocked_cycles::no_targets          135                       # number of cycles access was blocked
system.cpu.dcache.blocked::no_mshrs              4208                       # number of cycles access was blocked
system.cpu.dcache.blocked::no_targets               1                       # number of cycles access was blocked
system.cpu.dcache.avg_blocked_cycles::no_mshrs    10.259981                       # average number of cycles each access was blocked
system.cpu.dcache.avg_blocked_cycles::no_targets          135                       # average number of cycles each access was blocked
system.cpu.dcache.fast_writes                       0                       # number of fast writes performed
system.cpu.dcache.cache_copies                      0                       # number of cache copies performed
system.cpu.dcache.writebacks::writebacks        13138                       # number of writebacks
system.cpu.dcache.writebacks::total             13138                       # number of writebacks
system.cpu.dcache.ReadReq_mshr_hits::switch_cpus.data        17250                       # number of ReadReq MSHR hits
system.cpu.dcache.ReadReq_mshr_hits::total        17250                       # number of ReadReq MSHR hits
system.cpu.dcache.WriteReq_mshr_hits::switch_cpus.data        58349                       # number of WriteReq MSHR hits
system.cpu.dcache.WriteReq_mshr_hits::total        58349                       # number of WriteReq MSHR hits
system.cpu.dcache.LoadLockedReq_mshr_hits::switch_cpus.data          174                       # number of LoadLockedReq MSHR hits
system.cpu.dcache.LoadLockedReq_mshr_hits::total          174                       # number of LoadLockedReq MSHR hits
system.cpu.dcache.demand_mshr_hits::switch_cpus.data        75599                       # number of demand (read+write) MSHR hits
system.cpu.dcache.demand_mshr_hits::total        75599                       # number of demand (read+write) MSHR hits
system.cpu.dcache.overall_mshr_hits::switch_cpus.data        75599                       # number of overall MSHR hits
system.cpu.dcache.overall_mshr_hits::total        75599                       # number of overall MSHR hits
system.cpu.dcache.ReadReq_mshr_misses::switch_cpus.data         8979                       # number of ReadReq MSHR misses
system.cpu.dcache.ReadReq_mshr_misses::total         8979                       # number of ReadReq MSHR misses
system.cpu.dcache.WriteReq_mshr_misses::switch_cpus.data         9104                       # number of WriteReq MSHR misses
system.cpu.dcache.WriteReq_mshr_misses::total         9104                       # number of WriteReq MSHR misses
system.cpu.dcache.LoadLockedReq_mshr_misses::switch_cpus.data          222                       # number of LoadLockedReq MSHR misses
system.cpu.dcache.LoadLockedReq_mshr_misses::total          222                       # number of LoadLockedReq MSHR misses
system.cpu.dcache.demand_mshr_misses::switch_cpus.data        18083                       # number of demand (read+write) MSHR misses
system.cpu.dcache.demand_mshr_misses::total        18083                       # number of demand (read+write) MSHR misses
system.cpu.dcache.overall_mshr_misses::switch_cpus.data        18083                       # number of overall MSHR misses
system.cpu.dcache.overall_mshr_misses::total        18083                       # number of overall MSHR misses
system.cpu.dcache.WriteReq_mshr_uncacheable::switch_cpus.data            1                       # number of WriteReq MSHR uncacheable
system.cpu.dcache.WriteReq_mshr_uncacheable::total            1                       # number of WriteReq MSHR uncacheable
system.cpu.dcache.overall_mshr_uncacheable_misses::switch_cpus.data            1                       # number of overall MSHR uncacheable misses
system.cpu.dcache.overall_mshr_uncacheable_misses::total            1                       # number of overall MSHR uncacheable misses
system.cpu.dcache.ReadReq_mshr_miss_latency::switch_cpus.data    264361250                       # number of ReadReq MSHR miss cycles
system.cpu.dcache.ReadReq_mshr_miss_latency::total    264361250                       # number of ReadReq MSHR miss cycles
system.cpu.dcache.WriteReq_mshr_miss_latency::switch_cpus.data    146086802                       # number of WriteReq MSHR miss cycles
system.cpu.dcache.WriteReq_mshr_miss_latency::total    146086802                       # number of WriteReq MSHR miss cycles
system.cpu.dcache.LoadLockedReq_mshr_miss_latency::switch_cpus.data      5028000                       # number of LoadLockedReq MSHR miss cycles
system.cpu.dcache.LoadLockedReq_mshr_miss_latency::total      5028000                       # number of LoadLockedReq MSHR miss cycles
system.cpu.dcache.demand_mshr_miss_latency::switch_cpus.data    410448052                       # number of demand (read+write) MSHR miss cycles
system.cpu.dcache.demand_mshr_miss_latency::total    410448052                       # number of demand (read+write) MSHR miss cycles
system.cpu.dcache.overall_mshr_miss_latency::switch_cpus.data    410448052                       # number of overall MSHR miss cycles
system.cpu.dcache.overall_mshr_miss_latency::total    410448052                       # number of overall MSHR miss cycles
system.cpu.dcache.WriteReq_mshr_uncacheable_latency::switch_cpus.data       223500                       # number of WriteReq MSHR uncacheable cycles
system.cpu.dcache.WriteReq_mshr_uncacheable_latency::total       223500                       # number of WriteReq MSHR uncacheable cycles
system.cpu.dcache.overall_mshr_uncacheable_latency::switch_cpus.data       223500                       # number of overall MSHR uncacheable cycles
system.cpu.dcache.overall_mshr_uncacheable_latency::total       223500                       # number of overall MSHR uncacheable cycles
system.cpu.dcache.ReadReq_mshr_miss_rate::switch_cpus.data     0.056536                       # mshr miss rate for ReadReq accesses
system.cpu.dcache.ReadReq_mshr_miss_rate::total     0.056536                       # mshr miss rate for ReadReq accesses
system.cpu.dcache.WriteReq_mshr_miss_rate::switch_cpus.data     0.072103                       # mshr miss rate for WriteReq accesses
system.cpu.dcache.WriteReq_mshr_miss_rate::total     0.072103                       # mshr miss rate for WriteReq accesses
system.cpu.dcache.LoadLockedReq_mshr_miss_rate::switch_cpus.data     0.084668                       # mshr miss rate for LoadLockedReq accesses
system.cpu.dcache.LoadLockedReq_mshr_miss_rate::total     0.084668                       # mshr miss rate for LoadLockedReq accesses
system.cpu.dcache.demand_mshr_miss_rate::switch_cpus.data     0.063431                       # mshr miss rate for demand accesses
system.cpu.dcache.demand_mshr_miss_rate::total     0.063431                       # mshr miss rate for demand accesses
system.cpu.dcache.overall_mshr_miss_rate::switch_cpus.data     0.063431                       # mshr miss rate for overall accesses
system.cpu.dcache.overall_mshr_miss_rate::total     0.063431                       # mshr miss rate for overall accesses
system.cpu.dcache.ReadReq_avg_mshr_miss_latency::switch_cpus.data 29442.170620                       # average ReadReq mshr miss latency
system.cpu.dcache.ReadReq_avg_mshr_miss_latency::total 29442.170620                       # average ReadReq mshr miss latency
system.cpu.dcache.WriteReq_avg_mshr_miss_latency::switch_cpus.data 16046.441344                       # average WriteReq mshr miss latency
system.cpu.dcache.WriteReq_avg_mshr_miss_latency::total 16046.441344                       # average WriteReq mshr miss latency
system.cpu.dcache.LoadLockedReq_avg_mshr_miss_latency::switch_cpus.data 22648.648649                       # average LoadLockedReq mshr miss latency
system.cpu.dcache.LoadLockedReq_avg_mshr_miss_latency::total 22648.648649                       # average LoadLockedReq mshr miss latency
system.cpu.dcache.demand_avg_mshr_miss_latency::switch_cpus.data 22698.006525                       # average overall mshr miss latency
system.cpu.dcache.demand_avg_mshr_miss_latency::total 22698.006525                       # average overall mshr miss latency
system.cpu.dcache.overall_avg_mshr_miss_latency::switch_cpus.data 22698.006525                       # average overall mshr miss latency
system.cpu.dcache.overall_avg_mshr_miss_latency::total 22698.006525                       # average overall mshr miss latency
system.cpu.dcache.WriteReq_avg_mshr_uncacheable_latency::switch_cpus.data       223500                       # average WriteReq mshr uncacheable latency
system.cpu.dcache.WriteReq_avg_mshr_uncacheable_latency::total       223500                       # average WriteReq mshr uncacheable latency
system.cpu.dcache.overall_avg_mshr_uncacheable_latency::switch_cpus.data       223500                       # average overall mshr uncacheable latency
system.cpu.dcache.overall_avg_mshr_uncacheable_latency::total       223500                       # average overall mshr uncacheable latency
system.cpu.dcache.no_allocate_misses                0                       # Number of misses that were no-allocate
system.cpu.icache.tags.replacements             10534                       # number of replacements
system.cpu.icache.tags.tagsinuse           511.895991                       # Cycle average of tags in use
system.cpu.icache.tags.total_refs              361137                       # Total number of references to valid blocks.
system.cpu.icache.tags.sampled_refs             10534                       # Sample count of references to valid blocks.
system.cpu.icache.tags.avg_refs             34.282988                       # Average number of references to valid blocks.
system.cpu.icache.tags.warmup_cycle                 0                       # Cycle when the warmup percentage was hit.
system.cpu.icache.tags.occ_blocks::cpu.inst    25.001160                       # Average occupied blocks per requestor
system.cpu.icache.tags.occ_blocks::switch_cpus.inst   486.894831                       # Average occupied blocks per requestor
system.cpu.icache.tags.occ_percent::cpu.inst     0.048830                       # Average percentage of cache occupancy
system.cpu.icache.tags.occ_percent::switch_cpus.inst     0.950966                       # Average percentage of cache occupancy
system.cpu.icache.tags.occ_percent::total     0.999797                       # Average percentage of cache occupancy
system.cpu.icache.tags.occ_task_id_blocks::1024          511                       # Occupied blocks per task id
system.cpu.icache.tags.age_task_id_blocks_1024::0           71                       # Occupied blocks per task id
system.cpu.icache.tags.age_task_id_blocks_1024::1          110                       # Occupied blocks per task id
system.cpu.icache.tags.age_task_id_blocks_1024::2          330                       # Occupied blocks per task id
system.cpu.icache.tags.occ_task_id_percent::1024     0.998047                       # Percentage of cache occupancy per task id
system.cpu.icache.tags.tag_accesses            332817                       # Number of tag accesses
system.cpu.icache.tags.data_accesses           332817                       # Number of data accesses
system.cpu.icache.ReadReq_hits::switch_cpus.inst       148618                       # number of ReadReq hits
system.cpu.icache.ReadReq_hits::total          148618                       # number of ReadReq hits
system.cpu.icache.demand_hits::switch_cpus.inst       148618                       # number of demand (read+write) hits
system.cpu.icache.demand_hits::total           148618                       # number of demand (read+write) hits
system.cpu.icache.overall_hits::switch_cpus.inst       148618                       # number of overall hits
system.cpu.icache.overall_hits::total          148618                       # number of overall hits
system.cpu.icache.ReadReq_misses::switch_cpus.inst        12520                       # number of ReadReq misses
system.cpu.icache.ReadReq_misses::total         12520                       # number of ReadReq misses
system.cpu.icache.demand_misses::switch_cpus.inst        12520                       # number of demand (read+write) misses
system.cpu.icache.demand_misses::total          12520                       # number of demand (read+write) misses
system.cpu.icache.overall_misses::switch_cpus.inst        12520                       # number of overall misses
system.cpu.icache.overall_misses::total         12520                       # number of overall misses
system.cpu.icache.ReadReq_miss_latency::switch_cpus.inst    569858986                       # number of ReadReq miss cycles
system.cpu.icache.ReadReq_miss_latency::total    569858986                       # number of ReadReq miss cycles
system.cpu.icache.demand_miss_latency::switch_cpus.inst    569858986                       # number of demand (read+write) miss cycles
system.cpu.icache.demand_miss_latency::total    569858986                       # number of demand (read+write) miss cycles
system.cpu.icache.overall_miss_latency::switch_cpus.inst    569858986                       # number of overall miss cycles
system.cpu.icache.overall_miss_latency::total    569858986                       # number of overall miss cycles
system.cpu.icache.ReadReq_accesses::switch_cpus.inst       161138                       # number of ReadReq accesses(hits+misses)
system.cpu.icache.ReadReq_accesses::total       161138                       # number of ReadReq accesses(hits+misses)
system.cpu.icache.demand_accesses::switch_cpus.inst       161138                       # number of demand (read+write) accesses
system.cpu.icache.demand_accesses::total       161138                       # number of demand (read+write) accesses
system.cpu.icache.overall_accesses::switch_cpus.inst       161138                       # number of overall (read+write) accesses
system.cpu.icache.overall_accesses::total       161138                       # number of overall (read+write) accesses
system.cpu.icache.ReadReq_miss_rate::switch_cpus.inst     0.077697                       # miss rate for ReadReq accesses
system.cpu.icache.ReadReq_miss_rate::total     0.077697                       # miss rate for ReadReq accesses
system.cpu.icache.demand_miss_rate::switch_cpus.inst     0.077697                       # miss rate for demand accesses
system.cpu.icache.demand_miss_rate::total     0.077697                       # miss rate for demand accesses
system.cpu.icache.overall_miss_rate::switch_cpus.inst     0.077697                       # miss rate for overall accesses
system.cpu.icache.overall_miss_rate::total     0.077697                       # miss rate for overall accesses
system.cpu.icache.ReadReq_avg_miss_latency::switch_cpus.inst 45515.893450                       # average ReadReq miss latency
system.cpu.icache.ReadReq_avg_miss_latency::total 45515.893450                       # average ReadReq miss latency
system.cpu.icache.demand_avg_miss_latency::switch_cpus.inst 45515.893450                       # average overall miss latency
system.cpu.icache.demand_avg_miss_latency::total 45515.893450                       # average overall miss latency
system.cpu.icache.overall_avg_miss_latency::switch_cpus.inst 45515.893450                       # average overall miss latency
system.cpu.icache.overall_avg_miss_latency::total 45515.893450                       # average overall miss latency
system.cpu.icache.blocked_cycles::no_mshrs         2681                       # number of cycles access was blocked
system.cpu.icache.blocked_cycles::no_targets            0                       # number of cycles access was blocked
system.cpu.icache.blocked::no_mshrs                53                       # number of cycles access was blocked
system.cpu.icache.blocked::no_targets               0                       # number of cycles access was blocked
system.cpu.icache.avg_blocked_cycles::no_mshrs    50.584906                       # average number of cycles each access was blocked
system.cpu.icache.avg_blocked_cycles::no_targets          nan                       # average number of cycles each access was blocked
system.cpu.icache.fast_writes                       0                       # number of fast writes performed
system.cpu.icache.cache_copies                      0                       # number of cache copies performed
system.cpu.icache.ReadReq_mshr_hits::switch_cpus.inst         1977                       # number of ReadReq MSHR hits
system.cpu.icache.ReadReq_mshr_hits::total         1977                       # number of ReadReq MSHR hits
system.cpu.icache.demand_mshr_hits::switch_cpus.inst         1977                       # number of demand (read+write) MSHR hits
system.cpu.icache.demand_mshr_hits::total         1977                       # number of demand (read+write) MSHR hits
system.cpu.icache.overall_mshr_hits::switch_cpus.inst         1977                       # number of overall MSHR hits
system.cpu.icache.overall_mshr_hits::total         1977                       # number of overall MSHR hits
system.cpu.icache.ReadReq_mshr_misses::switch_cpus.inst        10543                       # number of ReadReq MSHR misses
system.cpu.icache.ReadReq_mshr_misses::total        10543                       # number of ReadReq MSHR misses
system.cpu.icache.demand_mshr_misses::switch_cpus.inst        10543                       # number of demand (read+write) MSHR misses
system.cpu.icache.demand_mshr_misses::total        10543                       # number of demand (read+write) MSHR misses
system.cpu.icache.overall_mshr_misses::switch_cpus.inst        10543                       # number of overall MSHR misses
system.cpu.icache.overall_mshr_misses::total        10543                       # number of overall MSHR misses
system.cpu.icache.ReadReq_mshr_miss_latency::switch_cpus.inst    461059508                       # number of ReadReq MSHR miss cycles
system.cpu.icache.ReadReq_mshr_miss_latency::total    461059508                       # number of ReadReq MSHR miss cycles
system.cpu.icache.demand_mshr_miss_latency::switch_cpus.inst    461059508                       # number of demand (read+write) MSHR miss cycles
system.cpu.icache.demand_mshr_miss_latency::total    461059508                       # number of demand (read+write) MSHR miss cycles
system.cpu.icache.overall_mshr_miss_latency::switch_cpus.inst    461059508                       # number of overall MSHR miss cycles
system.cpu.icache.overall_mshr_miss_latency::total    461059508                       # number of overall MSHR miss cycles
system.cpu.icache.ReadReq_mshr_miss_rate::switch_cpus.inst     0.065428                       # mshr miss rate for ReadReq accesses
system.cpu.icache.ReadReq_mshr_miss_rate::total     0.065428                       # mshr miss rate for ReadReq accesses
system.cpu.icache.demand_mshr_miss_rate::switch_cpus.inst     0.065428                       # mshr miss rate for demand accesses
system.cpu.icache.demand_mshr_miss_rate::total     0.065428                       # mshr miss rate for demand accesses
system.cpu.icache.overall_mshr_miss_rate::switch_cpus.inst     0.065428                       # mshr miss rate for overall accesses
system.cpu.icache.overall_mshr_miss_rate::total     0.065428                       # mshr miss rate for overall accesses
system.cpu.icache.ReadReq_avg_mshr_miss_latency::switch_cpus.inst 43731.339088                       # average ReadReq mshr miss latency
system.cpu.icache.ReadReq_avg_mshr_miss_latency::total 43731.339088                       # average ReadReq mshr miss latency
system.cpu.icache.demand_avg_mshr_miss_latency::switch_cpus.inst 43731.339088                       # average overall mshr miss latency
[...]
system.switch_cpus.iew.wb_producers        4009421409                       # num instructions producing a value
system.switch_cpus.iew.wb_consumers        4854731414                       # num instructions consuming a value
system.switch_cpus.iew.wb_penalized                 0                       # number of instrctions required to write to 'other' IQ
system.switch_cpus.iew.wb_rate               2.717300                       # insts written-back per cycle
system.switch_cpus.iew.wb_fanout             0.825879                       # average fanout of values written-back
system.switch_cpus.iew.wb_penalized_rate            0                       # fraction of instructions written-back that wrote to 'other' IQ
system.switch_cpus.commit.commitSquashedInsts    281768846                       # The number of squashed insts skipped by commit
system.switch_cpus.commit.commitNonSpecStalls       138138                       # The number of times commit has been forced to stall to communicate backwards
system.switch_cpus.commit.branchMispredicts      7396252                       # The number of times a branch was mispredicted
system.switch_cpus.commit.committed_per_cycle::samples   2054697795                       # Number of insts commited each cycle
system.switch_cpus.commit.committed_per_cycle::mean     3.079775                       # Number of insts commited each cycle
system.switch_cpus.commit.committed_per_cycle::stdev     3.260266                       # Number of insts commited each cycle
system.switch_cpus.commit.committed_per_cycle::underflows            0      0.00%      0.00% # Number of insts commited each cycle
system.switch_cpus.commit.committed_per_cycle::0    737991929     35.92%     35.92% # Number of insts commited each cycle
system.switch_cpus.commit.committed_per_cycle::1    228183016     11.11%     47.02% # Number of insts commited each cycle
system.switch_cpus.commit.committed_per_cycle::2    230802474     11.23%     58.26% # Number of insts commited each cycle
system.switch_cpus.commit.committed_per_cycle::3     91401184      4.45%     62.70% # Number of insts commited each cycle
system.switch_cpus.commit.committed_per_cycle::4    116226763      5.66%     68.36% # Number of insts commited each cycle
system.switch_cpus.commit.committed_per_cycle::5     45392742      2.21%     70.57% # Number of insts commited each cycle
system.switch_cpus.commit.committed_per_cycle::6     70735597      3.44%     74.01% # Number of insts commited each cycle
system.switch_cpus.commit.committed_per_cycle::7     23981334      1.17%     75.18% # Number of insts commited each cycle
system.switch_cpus.commit.committed_per_cycle::8    509982756     24.82%    100.00% # Number of insts commited each cycle
system.switch_cpus.commit.committed_per_cycle::overflows            0      0.00%    100.00% # Number of insts commited each cycle
system.switch_cpus.commit.committed_per_cycle::min_value            0                       # Number of insts commited each cycle
system.switch_cpus.commit.committed_per_cycle::max_value            8                       # Number of insts commited each cycle
system.switch_cpus.commit.committed_per_cycle::total   2054697795                       # Number of insts commited each cycle
system.switch_cpus.commit.committedInsts   6328007246                       # Number of instructions committed
system.switch_cpus.commit.committedOps     6328007246                       # Number of ops (including micro ops) committed
system.switch_cpus.commit.swp_count                 0                       # Number of s/w prefetches committed
system.switch_cpus.commit.refs             1339838060                       # Number of memory references committed
system.switch_cpus.commit.loads            1165742015                       # Number of loads committed
system.switch_cpus.commit.membars               52825                       # Number of memory barriers committed
system.switch_cpus.commit.branches           84401115                       # Number of branches committed
system.switch_cpus.commit.fp_insts            1232877                       # Number of committed floating point instructions.
system.switch_cpus.commit.int_insts        6029807099                       # Number of committed integer instructions.
system.switch_cpus.commit.function_calls      3992857                       # Number of function calls committed.
system.switch_cpus.commit.op_class_0::No_OpClass    291644506      4.61%      4.61% # Class of committed instruction
system.switch_cpus.commit.op_class_0::IntAlu   4660705462     73.65%     78.26% # Class of committed instruction
system.switch_cpus.commit.op_class_0::IntMult     28334621      0.45%     78.71% # Class of committed instruction
system.switch_cpus.commit.op_class_0::IntDiv            0      0.00%     78.71% # Class of committed instruction
system.switch_cpus.commit.op_class_0::FloatAdd      1167365      0.02%     78.73% # Class of committed instruction
system.switch_cpus.commit.op_class_0::FloatCmp            3      0.00%     78.73% # Class of committed instruction
system.switch_cpus.commit.op_class_0::FloatCvt         2823      0.00%     78.73% # Class of committed instruction
system.switch_cpus.commit.op_class_0::FloatMult            6      0.00%     78.73% # Class of committed instruction
system.switch_cpus.commit.op_class_0::FloatDiv         1186      0.00%     78.73% # Class of committed instruction
system.switch_cpus.commit.op_class_0::FloatSqrt            0      0.00%     78.73% # Class of committed instruction
system.switch_cpus.commit.op_class_0::SimdAdd            0      0.00%     78.73% # Class of committed instruction
system.switch_cpus.commit.op_class_0::SimdAddAcc            0      0.00%     78.73% # Class of committed instruction
system.switch_cpus.commit.op_class_0::SimdAlu            0      0.00%     78.73% # Class of committed instruction
system.switch_cpus.commit.op_class_0::SimdCmp            0      0.00%     78.73% # Class of committed instruction
system.switch_cpus.commit.op_class_0::SimdCvt            0      0.00%     78.73% # Class of committed instruction
system.switch_cpus.commit.op_class_0::SimdMisc            0      0.00%     78.73% # Class of committed instruction
system.switch_cpus.commit.op_class_0::SimdMult            0      0.00%     78.73% # Class of committed instruction
system.switch_cpus.commit.op_class_0::SimdMultAcc            0      0.00%     78.73% # Class of committed instruction
system.switch_cpus.commit.op_class_0::SimdShift            0      0.00%     78.73% # Class of committed instruction
system.switch_cpus.commit.op_class_0::SimdShiftAcc            0      0.00%     78.73% # Class of committed instruction
system.switch_cpus.commit.op_class_0::SimdSqrt            0      0.00%     78.73% # Class of committed instruction
system.switch_cpus.commit.op_class_0::SimdFloatAdd            0      0.00%     78.73% # Class of committed instruction
system.switch_cpus.commit.op_class_0::SimdFloatAlu            0      0.00%     78.73% # Class of committed instruction
system.switch_cpus.commit.op_class_0::SimdFloatCmp            0      0.00%     78.73% # Class of committed instruction
system.switch_cpus.commit.op_class_0::SimdFloatCvt            0      0.00%     78.73% # Class of committed instruction
system.switch_cpus.commit.op_class_0::SimdFloatDiv            0      0.00%     78.73% # Class of committed instruction
system.switch_cpus.commit.op_class_0::SimdFloatMisc            0      0.00%     78.73% # Class of committed instruction
system.switch_cpus.commit.op_class_0::SimdFloatMult            0      0.00%     78.73% # Class of committed instruction
system.switch_cpus.commit.op_class_0::SimdFloatMultAcc            0      0.00%     78.73% # Class of committed instruction
system.switch_cpus.commit.op_class_0::SimdFloatSqrt            0      0.00%     78.73% # Class of committed instruction
system.switch_cpus.commit.op_class_0::MemRead   1165794840     18.42%     97.15% # Class of committed instruction
system.switch_cpus.commit.op_class_0::MemWrite    174099509      2.75%     99.90% # Class of committed instruction
system.switch_cpus.commit.op_class_0::IprAccess      6256925      0.10%    100.00% # Class of committed instruction
system.switch_cpus.commit.op_class_0::InstPrefetch            0      0.00%    100.00% # Class of committed instruction
system.switch_cpus.commit.op_class_0::total   6328007246                       # Class of committed instruction
system.switch_cpus.commit.bw_lim_events     509982756                       # number cycles where commit BW limit reached
system.switch_cpus.rob.rob_reads           8145708029                       # The number of ROB reads
system.switch_cpus.rob.rob_writes         13260571600                       # The number of ROB writes
system.switch_cpus.timesIdled                 7920120                       # Number of times that the entire CPU went into an idle state and unscheduled itself
system.switch_cpus.idleCycles               167186975                       # Total number of cycles that the CPU has spent unscheduled due to idling
system.switch_cpus.committedInsts          6036365110                       # Number of Instructions Simulated
system.switch_cpus.committedOps            6036365110                       # Number of Ops (including micro ops) Simulated
system.switch_cpus.cpi                       0.374856                       # CPI: Cycles Per Instruction
system.switch_cpus.cpi_total                 0.374856                       # CPI: Total CPI of All Threads
system.switch_cpus.ipc                       2.667688                       # IPC: Instructions Per Cycle
system.switch_cpus.ipc_total                 2.667688                       # IPC: Total IPC of All Threads
system.switch_cpus.int_regfile_reads      10060575525                       # number of integer regfile reads
system.switch_cpus.int_regfile_writes      5859313364                       # number of integer regfile writes
system.switch_cpus.fp_regfile_reads             84893                       # number of floating regfile reads
system.switch_cpus.fp_regfile_writes            85333                       # number of floating regfile writes
system.switch_cpus.misc_regfile_reads         5236645                       # number of misc regfile reads
system.switch_cpus.misc_regfile_writes        2645985                       # number of misc regfile writes
system.tol2bus.trans_dist::ReadReq           16915972                       # Transaction distribution
system.tol2bus.trans_dist::ReadResp          16915972                       # Transaction distribution
system.tol2bus.trans_dist::WriteReq              1348                       # Transaction distribution
system.tol2bus.trans_dist::WriteResp             1348                       # Transaction distribution
system.tol2bus.trans_dist::Writeback          1338144                       # Transaction distribution
system.tol2bus.trans_dist::UpgradeReq              53                       # Transaction distribution
system.tol2bus.trans_dist::SCUpgradeReq             4                       # Transaction distribution
system.tol2bus.trans_dist::UpgradeResp             57                       # Transaction distribution
system.tol2bus.trans_dist::ReadExReq           643848                       # Transaction distribution
system.tol2bus.trans_dist::ReadExResp          643848                       # Transaction distribution
system.tol2bus.pkt_count_system.cpu.icache.mem_side::system.l2.cpu_side     24562123                       # Packet count per connected master and slave (bytes)
system.tol2bus.pkt_count_system.cpu.dcache.mem_side::system.l2.cpu_side     11898362                       # Packet count per connected master and slave (bytes)
system.tol2bus.pkt_count::total              36460485                       # Packet count per connected master and slave (bytes)
system.tol2bus.pkt_size_system.cpu.icache.mem_side::system.l2.cpu_side    785984448                       # Cumulative packet size per connected master and slave (bytes)
system.tol2bus.pkt_size_system.cpu.dcache.mem_side::system.l2.cpu_side    423460482                       # Cumulative packet size per connected master and slave (bytes)
system.tol2bus.pkt_size::total             1209444930                       # Cumulative packet size per connected master and slave (bytes)
system.tol2bus.snoops                             109                       # Total snoops (count)
system.tol2bus.snoop_fanout::samples         18899369                       # Request fanout histogram
system.tol2bus.snoop_fanout::mean                   1                       # Request fanout histogram
system.tol2bus.snoop_fanout::stdev                  0                       # Request fanout histogram
system.tol2bus.snoop_fanout::underflows             0      0.00%      0.00% # Request fanout histogram
system.tol2bus.snoop_fanout::0                      0      0.00%      0.00% # Request fanout histogram
system.tol2bus.snoop_fanout::1               18899369    100.00%    100.00% # Request fanout histogram
system.tol2bus.snoop_fanout::2                      0      0.00%    100.00% # Request fanout histogram
system.tol2bus.snoop_fanout::overflows              0      0.00%    100.00% # Request fanout histogram
system.tol2bus.snoop_fanout::min_value              1                       # Request fanout histogram
system.tol2bus.snoop_fanout::max_value              1                       # Request fanout histogram
system.tol2bus.snoop_fanout::total           18899369                       # Request fanout histogram
system.tol2bus.reqLayer0.occupancy        10788502500                       # Layer occupancy (ticks)
system.tol2bus.reqLayer0.utilization              1.0                       # Layer utilization (%)
system.tol2bus.respLayer0.occupancy       18663599228                       # Layer occupancy (ticks)
system.tol2bus.respLayer0.utilization             1.6                       # Layer utilization (%)
system.tol2bus.respLayer1.occupancy        8254376340                       # Layer occupancy (ticks)
system.tol2bus.respLayer1.utilization             0.7                       # Layer utilization (%)
system.tsunami.ethernet.descDMAReads                0                       # Number of descriptors the device read w/ DMA
system.tsunami.ethernet.descDMAWrites               0                       # Number of descriptors the device wrote w/ DMA
system.tsunami.ethernet.descDmaReadBytes            0                       # number of descriptor bytes read w/ DMA
system.tsunami.ethernet.descDmaWriteBytes            0                       # number of descriptor bytes write w/ DMA
system.tsunami.ethernet.postedSwi                   0                       # number of software interrupts posted to CPU
system.tsunami.ethernet.coalescedSwi              nan                       # average number of Swi's coalesced into each post
system.tsunami.ethernet.totalSwi                    0                       # total number of Swi written to ISR
system.tsunami.ethernet.postedRxIdle                0                       # number of rxIdle interrupts posted to CPU
system.tsunami.ethernet.coalescedRxIdle           nan                       # average number of RxIdle's coalesced into each post
system.tsunami.ethernet.totalRxIdle                 0                       # total number of RxIdle written to ISR
system.tsunami.ethernet.postedRxOk                  0                       # number of RxOk interrupts posted to CPU
system.tsunami.ethernet.coalescedRxOk             nan                       # average number of RxOk's coalesced into each post
system.tsunami.ethernet.totalRxOk                   0                       # total number of RxOk written to ISR
system.tsunami.ethernet.postedRxDesc                0                       # number of RxDesc interrupts posted to CPU
system.tsunami.ethernet.coalescedRxDesc           nan                       # average number of RxDesc's coalesced into each post
system.tsunami.ethernet.totalRxDesc                 0                       # total number of RxDesc written to ISR
system.tsunami.ethernet.postedTxOk                  0                       # number of TxOk interrupts posted to CPU
system.tsunami.ethernet.coalescedTxOk             nan                       # average number of TxOk's coalesced into each post
system.tsunami.ethernet.totalTxOk                   0                       # total number of TxOk written to ISR
system.tsunami.ethernet.postedTxIdle                0                       # number of TxIdle interrupts posted to CPU
system.tsunami.ethernet.coalescedTxIdle           nan                       # average number of TxIdle's coalesced into each post
system.tsunami.ethernet.totalTxIdle                 0                       # total number of TxIdle written to ISR
system.tsunami.ethernet.postedTxDesc                0                       # number of TxDesc interrupts posted to CPU
system.tsunami.ethernet.coalescedTxDesc           nan                       # average number of TxDesc's coalesced into each post
system.tsunami.ethernet.totalTxDesc                 0                       # total number of TxDesc written to ISR
system.tsunami.ethernet.postedRxOrn                 0                       # number of RxOrn posted to CPU
system.tsunami.ethernet.coalescedRxOrn            nan                       # average number of RxOrn's coalesced into each post
system.tsunami.ethernet.totalRxOrn                  0                       # total number of RxOrn written to ISR
system.tsunami.ethernet.coalescedTotal            nan                       # average number of interrupts coalesced into each post
system.tsunami.ethernet.postedInterrupts            0                       # number of posts to CPU
system.tsunami.ethernet.droppedPackets              0                       # number of packets dropped
system.switch_cpus.kern.inst.arm                    0                       # number of arm instructions executed
system.switch_cpus.kern.inst.quiesce                0                       # number of quiesce instructions executed
system.switch_cpus.kern.inst.hwrei                  0                       # number of hwrei instructions executed
system.switch_cpus.kern.mode_switch::kernel            0                       # number of protection mode switches
system.switch_cpus.kern.mode_switch::user            0                       # number of protection mode switches
system.switch_cpus.kern.mode_switch::idle            0                       # number of protection mode switches
system.switch_cpus.kern.mode_good::kernel            0                      
system.switch_cpus.kern.mode_good::user             0                      
system.switch_cpus.kern.mode_good::idle             0                      
system.switch_cpus.kern.mode_switch_good::kernel          nan                       # fraction of useful protection mode switches
system.switch_cpus.kern.mode_switch_good::user          nan                       # fraction of useful protection mode switches
system.switch_cpus.kern.mode_switch_good::idle          nan                       # fraction of useful protection mode switches
system.switch_cpus.kern.mode_switch_good::total          nan                       # fraction of useful protection mode switches
system.switch_cpus.kern.mode_ticks::kernel            0                       # number of ticks spent at the given mode
system.switch_cpus.kern.mode_ticks::user            0                       # number of ticks spent at the given mode
system.switch_cpus.kern.mode_ticks::idle            0                       # number of ticks spent at the given mode
system.switch_cpus.kern.swap_context                0                       # number of times the context was actually changed

---------- End Simulation Statistics   ----------
