
---------- Begin Simulation Statistics ----------
sim_seconds                                  0.000667                       # Number of seconds simulated
sim_ticks                                   667298500                       # Number of ticks simulated
final_tick                               2255134027500                       # Number of ticks from beginning of simulation (restored from checkpoints and never reset)
sim_freq                                 1000000000000                       # Frequency of simulated ticks
host_inst_rate                               41593089                       # Simulator instruction rate (inst/s)
host_op_rate                                 41592960                       # Simulator op (including micro ops) rate (op/s)
host_tick_rate                              283104260                       # Simulator tick rate (ticks/s)
host_mem_usage                                 728944                       # Number of bytes of host memory used
host_seconds                                     2.36                       # Real time elapsed on the host
sim_insts                                    98037530                       # Number of instructions simulated
sim_ops                                      98037530                       # Number of ops (including micro ops) simulated
system.voltage_domain.voltage                       1                       # Voltage in Volts
system.clk_domain.clock                          1000                       # Clock period in ticks
system.mem_ctrls.bytes_read::switch_cpus.inst       110272                       # Number of bytes read from this memory
system.mem_ctrls.bytes_read::switch_cpus.data       229824                       # Number of bytes read from this memory
system.mem_ctrls.bytes_read::total             340096                       # Number of bytes read from this memory
system.mem_ctrls.bytes_inst_read::switch_cpus.inst       110272                       # Number of instructions bytes read from this memory
system.mem_ctrls.bytes_inst_read::total        110272                       # Number of instructions bytes read from this memory
system.mem_ctrls.bytes_written::writebacks       155328                       # Number of bytes written to this memory
system.mem_ctrls.bytes_written::total          155328                       # Number of bytes written to this memory
system.mem_ctrls.num_reads::switch_cpus.inst         1723                       # Number of read requests responded to by this memory
system.mem_ctrls.num_reads::switch_cpus.data         3591                       # Number of read requests responded to by this memory
system.mem_ctrls.num_reads::total                5314                       # Number of read requests responded to by this memory
system.mem_ctrls.num_writes::writebacks          2427                       # Number of write requests responded to by this memory
system.mem_ctrls.num_writes::total               2427                       # Number of write requests responded to by this memory
system.mem_ctrls.bw_read::switch_cpus.inst    165251383                       # Total read bandwidth from this memory (bytes/s)
system.mem_ctrls.bw_read::switch_cpus.data    344409586                       # Total read bandwidth from this memory (bytes/s)
system.mem_ctrls.bw_read::total             509660969                       # Total read bandwidth from this memory (bytes/s)
system.mem_ctrls.bw_inst_read::switch_cpus.inst    165251383                       # Instruction read bandwidth from this memory (bytes/s)
system.mem_ctrls.bw_inst_read::total        165251383                       # Instruction read bandwidth from this memory (bytes/s)
system.mem_ctrls.bw_write::writebacks       232771391                       # Write bandwidth from this memory (bytes/s)
system.mem_ctrls.bw_write::total            232771391                       # Write bandwidth from this memory (bytes/s)
system.mem_ctrls.bw_total::writebacks       232771391                       # Total bandwidth to/from this memory (bytes/s)
system.mem_ctrls.bw_total::switch_cpus.inst    165251383                       # Total bandwidth to/from this memory (bytes/s)
system.mem_ctrls.bw_total::switch_cpus.data    344409586                       # Total bandwidth to/from this memory (bytes/s)
system.mem_ctrls.bw_total::total            742432360                       # Total bandwidth to/from this memory (bytes/s)
system.mem_ctrls.readReqs                        5314                       # Number of read requests accepted
system.mem_ctrls.writeReqs                       2427                       # Number of write requests accepted
system.mem_ctrls.readBursts                      5314                       # Number of DRAM read bursts, including those serviced by the write queue
system.mem_ctrls.writeBursts                     2427                       # Number of DRAM write bursts, including those merged in the write queue
system.mem_ctrls.bytesReadDRAM                 338368                       # Total number of bytes read from DRAM
system.mem_ctrls.bytesReadWrQ                    1728                       # Total number of bytes read from write queue
system.mem_ctrls.bytesWritten                  153792                       # Total number of bytes written to DRAM
system.mem_ctrls.bytesReadSys                  340096                       # Total read bytes from the system interface side
system.mem_ctrls.bytesWrittenSys               155328                       # Total written bytes from the system interface side
system.mem_ctrls.servicedByWrQ                     27                       # Number of DRAM read bursts serviced by the write queue
system.mem_ctrls.mergedWrBursts                     0                       # Number of DRAM write bursts merged with an existing one
system.mem_ctrls.neitherReadNorWriteReqs            0                       # Number of requests that are neither read nor write
system.mem_ctrls.perBankRdBursts::0               528                       # Per bank write bursts
system.mem_ctrls.perBankRdBursts::1               182                       # Per bank write bursts
system.mem_ctrls.perBankRdBursts::2               285                       # Per bank write bursts
system.mem_ctrls.perBankRdBursts::3               448                       # Per bank write bursts
system.mem_ctrls.perBankRdBursts::4               113                       # Per bank write bursts
system.mem_ctrls.perBankRdBursts::5               473                       # Per bank write bursts
system.mem_ctrls.perBankRdBursts::6               194                       # Per bank write bursts
system.mem_ctrls.perBankRdBursts::7               289                       # Per bank write bursts
system.mem_ctrls.perBankRdBursts::8               420                       # Per bank write bursts
system.mem_ctrls.perBankRdBursts::9               217                       # Per bank write bursts
system.mem_ctrls.perBankRdBursts::10              384                       # Per bank write bursts
system.mem_ctrls.perBankRdBursts::11              612                       # Per bank write bursts
system.mem_ctrls.perBankRdBursts::12              155                       # Per bank write bursts
system.mem_ctrls.perBankRdBursts::13              572                       # Per bank write bursts
system.mem_ctrls.perBankRdBursts::14              216                       # Per bank write bursts
system.mem_ctrls.perBankRdBursts::15              199                       # Per bank write bursts
system.mem_ctrls.perBankWrBursts::0               112                       # Per bank write bursts
system.mem_ctrls.perBankWrBursts::1                78                       # Per bank write bursts
system.mem_ctrls.perBankWrBursts::2               143                       # Per bank write bursts
system.mem_ctrls.perBankWrBursts::3               420                       # Per bank write bursts
system.mem_ctrls.perBankWrBursts::4                58                       # Per bank write bursts
system.mem_ctrls.perBankWrBursts::5               420                       # Per bank write bursts
system.mem_ctrls.perBankWrBursts::6                94                       # Per bank write bursts
system.mem_ctrls.perBankWrBursts::7               139                       # Per bank write bursts
system.mem_ctrls.perBankWrBursts::8               258                       # Per bank write bursts
system.mem_ctrls.perBankWrBursts::9                87                       # Per bank write bursts
system.mem_ctrls.perBankWrBursts::10              154                       # Per bank write bursts
system.mem_ctrls.perBankWrBursts::11              125                       # Per bank write bursts
system.mem_ctrls.perBankWrBursts::12               34                       # Per bank write bursts
system.mem_ctrls.perBankWrBursts::13              137                       # Per bank write bursts
system.mem_ctrls.perBankWrBursts::14               61                       # Per bank write bursts
system.mem_ctrls.perBankWrBursts::15               83                       # Per bank write bursts
system.mem_ctrls.numRdRetry                         0                       # Number of times read queue was full causing retry
system.mem_ctrls.numWrRetry                         0                       # Number of times write queue was full causing retry
system.mem_ctrls.totGap                     665091000                       # Total gap between requests
system.mem_ctrls.readPktSize::0                     0                       # Read request sizes (log2)
system.mem_ctrls.readPktSize::1                     0                       # Read request sizes (log2)
system.mem_ctrls.readPktSize::2                     0                       # Read request sizes (log2)
system.mem_ctrls.readPktSize::3                     0                       # Read request sizes (log2)
system.mem_ctrls.readPktSize::4                     0                       # Read request sizes (log2)
system.mem_ctrls.readPktSize::5                     0                       # Read request sizes (log2)
system.mem_ctrls.readPktSize::6                  5314                       # Read request sizes (log2)
system.mem_ctrls.writePktSize::0                    0                       # Write request sizes (log2)
system.mem_ctrls.writePktSize::1                    0                       # Write request sizes (log2)
system.mem_ctrls.writePktSize::2                    0                       # Write request sizes (log2)
system.mem_ctrls.writePktSize::3                    0                       # Write request sizes (log2)
system.mem_ctrls.writePktSize::4                    0                       # Write request sizes (log2)
system.mem_ctrls.writePktSize::5                    0                       # Write request sizes (log2)
system.mem_ctrls.writePktSize::6                 2427                       # Write request sizes (log2)
system.mem_ctrls.rdQLenPdf::0                    3285                       # What read queue length does an incoming req see
system.mem_ctrls.rdQLenPdf::1                    1232                       # What read queue length does an incoming req see
system.mem_ctrls.rdQLenPdf::2                     518                       # What read queue length does an incoming req see
system.mem_ctrls.rdQLenPdf::3                     251                       # What read queue length does an incoming req see
system.mem_ctrls.rdQLenPdf::4                       1                       # What read queue length does an incoming req see
system.mem_ctrls.rdQLenPdf::5                       0                       # What read queue length does an incoming req see
system.mem_ctrls.rdQLenPdf::6                       0                       # What read queue length does an incoming req see
system.mem_ctrls.rdQLenPdf::7                       0                       # What read queue length does an incoming req see
system.mem_ctrls.rdQLenPdf::8                       0                       # What read queue length does an incoming req see
system.mem_ctrls.rdQLenPdf::9                       0                       # What read queue length does an incoming req see
system.mem_ctrls.rdQLenPdf::10                      0                       # What read queue length does an incoming req see
system.mem_ctrls.rdQLenPdf::11                      0                       # What read queue length does an incoming req see
system.mem_ctrls.rdQLenPdf::12                      0                       # What read queue length does an incoming req see
system.mem_ctrls.rdQLenPdf::13                      0                       # What read queue length does an incoming req see
system.mem_ctrls.rdQLenPdf::14                      0                       # What read queue length does an incoming req see
system.mem_ctrls.rdQLenPdf::15                      0                       # What read queue length does an incoming req see
system.mem_ctrls.rdQLenPdf::16                      0                       # What read queue length does an incoming req see
system.mem_ctrls.rdQLenPdf::17                      0                       # What read queue length does an incoming req see
system.mem_ctrls.rdQLenPdf::18                      0                       # What read queue length does an incoming req see
system.mem_ctrls.rdQLenPdf::19                      0                       # What read queue length does an incoming req see
system.mem_ctrls.rdQLenPdf::20                      0                       # What read queue length does an incoming req see
system.mem_ctrls.rdQLenPdf::21                      0                       # What read queue length does an incoming req see
system.mem_ctrls.rdQLenPdf::22                      0                       # What read queue length does an incoming req see
system.mem_ctrls.rdQLenPdf::23                      0                       # What read queue length does an incoming req see
system.mem_ctrls.rdQLenPdf::24                      0                       # What read queue length does an incoming req see
system.mem_ctrls.rdQLenPdf::25                      0                       # What read queue length does an incoming req see
system.mem_ctrls.rdQLenPdf::26                      0                       # What read queue length does an incoming req see
system.mem_ctrls.rdQLenPdf::27                      0                       # What read queue length does an incoming req see
system.mem_ctrls.rdQLenPdf::28                      0                       # What read queue length does an incoming req see
system.mem_ctrls.rdQLenPdf::29                      0                       # What read queue length does an incoming req see
system.mem_ctrls.rdQLenPdf::30                      0                       # What read queue length does an incoming req see
system.mem_ctrls.rdQLenPdf::31                      0                       # What read queue length does an incoming req see
system.mem_ctrls.wrQLenPdf::0                       1                       # What write queue length does an incoming req see
system.mem_ctrls.wrQLenPdf::1                       1                       # What write queue length does an incoming req see
system.mem_ctrls.wrQLenPdf::2                       1                       # What write queue length does an incoming req see
system.mem_ctrls.wrQLenPdf::3                       1                       # What write queue length does an incoming req see
system.mem_ctrls.wrQLenPdf::4                       1                       # What write queue length does an incoming req see
system.mem_ctrls.wrQLenPdf::5                       1                       # What write queue length does an incoming req see
system.mem_ctrls.wrQLenPdf::6                       1                       # What write queue length does an incoming req see
system.mem_ctrls.wrQLenPdf::7                       1                       # What write queue length does an incoming req see
system.mem_ctrls.wrQLenPdf::8                       1                       # What write queue length does an incoming req see
system.mem_ctrls.wrQLenPdf::9                       1                       # What write queue length does an incoming req see
system.mem_ctrls.wrQLenPdf::10                      1                       # What write queue length does an incoming req see
system.mem_ctrls.wrQLenPdf::11                      1                       # What write queue length does an incoming req see
system.mem_ctrls.wrQLenPdf::12                      1                       # What write queue length does an incoming req see
system.mem_ctrls.wrQLenPdf::13                      1                       # What write queue length does an incoming req see
system.mem_ctrls.wrQLenPdf::14                      1                       # What write queue length does an incoming req see
system.mem_ctrls.wrQLenPdf::15                     40                       # What write queue length does an incoming req see
system.mem_ctrls.wrQLenPdf::16                     44                       # What write queue length does an incoming req see
system.mem_ctrls.wrQLenPdf::17                    108                       # What write queue length does an incoming req see
system.mem_ctrls.wrQLenPdf::18                    131                       # What write queue length does an incoming req see
system.mem_ctrls.wrQLenPdf::19                    146                       # What write queue length does an incoming req see
system.mem_ctrls.wrQLenPdf::20                    149                       # What write queue length does an incoming req see
system.mem_ctrls.wrQLenPdf::21                    153                       # What write queue length does an incoming req see
system.mem_ctrls.wrQLenPdf::22                    151                       # What write queue length does an incoming req see
system.mem_ctrls.wrQLenPdf::23                    149                       # What write queue length does an incoming req see
system.mem_ctrls.wrQLenPdf::24                    147                       # What write queue length does an incoming req see
system.mem_ctrls.wrQLenPdf::25                    149                       # What write queue length does an incoming req see
system.mem_ctrls.wrQLenPdf::26                    159                       # What write queue length does an incoming req see
system.mem_ctrls.wrQLenPdf::27                    149                       # What write queue length does an incoming req see
system.mem_ctrls.wrQLenPdf::28                    149                       # What write queue length does an incoming req see
system.mem_ctrls.wrQLenPdf::29                    153                       # What write queue length does an incoming req see
system.mem_ctrls.wrQLenPdf::30                    146                       # What write queue length does an incoming req see
system.mem_ctrls.wrQLenPdf::31                    145                       # What write queue length does an incoming req see
system.mem_ctrls.wrQLenPdf::32                    144                       # What write queue length does an incoming req see
system.mem_ctrls.wrQLenPdf::33                      0                       # What write queue length does an incoming req see
system.mem_ctrls.wrQLenPdf::34                      0                       # What write queue length does an incoming req see
system.mem_ctrls.wrQLenPdf::35                      0                       # What write queue length does an incoming req see
system.mem_ctrls.wrQLenPdf::36                      0                       # What write queue length does an incoming req see
system.mem_ctrls.wrQLenPdf::37                      0                       # What write queue length does an incoming req see
system.mem_ctrls.wrQLenPdf::38                      0                       # What write queue length does an incoming req see
system.mem_ctrls.wrQLenPdf::39                      0                       # What write queue length does an incoming req see
system.mem_ctrls.wrQLenPdf::40                      0                       # What write queue length does an incoming req see
system.mem_ctrls.wrQLenPdf::41                      0                       # What write queue length does an incoming req see
system.mem_ctrls.wrQLenPdf::42                      0                       # What write queue length does an incoming req see
system.mem_ctrls.wrQLenPdf::43                      0                       # What write queue length does an incoming req see
system.mem_ctrls.wrQLenPdf::44                      0                       # What write queue length does an incoming req see
system.mem_ctrls.wrQLenPdf::45                      0                       # What write queue length does an incoming req see
system.mem_ctrls.wrQLenPdf::46                      0                       # What write queue length does an incoming req see
system.mem_ctrls.wrQLenPdf::47                      0                       # What write queue length does an incoming req see
system.mem_ctrls.wrQLenPdf::48                      0                       # What write queue length does an incoming req see
system.mem_ctrls.wrQLenPdf::49                      0                       # What write queue length does an incoming req see
system.mem_ctrls.wrQLenPdf::50                      0                       # What write queue length does an incoming req see
system.mem_ctrls.wrQLenPdf::51                      0                       # What write queue length does an incoming req see
system.mem_ctrls.wrQLenPdf::52                      0                       # What write queue length does an incoming req see
system.mem_ctrls.wrQLenPdf::53                      0                       # What write queue length does an incoming req see
system.mem_ctrls.wrQLenPdf::54                      0                       # What write queue length does an incoming req see
system.mem_ctrls.wrQLenPdf::55                      0                       # What write queue length does an incoming req see
system.mem_ctrls.wrQLenPdf::56                      0                       # What write queue length does an incoming req see
system.mem_ctrls.wrQLenPdf::57                      0                       # What write queue length does an incoming req see
system.mem_ctrls.wrQLenPdf::58                      0                       # What write queue length does an incoming req see
system.mem_ctrls.wrQLenPdf::59                      0                       # What write queue length does an incoming req see
system.mem_ctrls.wrQLenPdf::60                      0                       # What write queue length does an incoming req see
system.mem_ctrls.wrQLenPdf::61                      0                       # What write queue length does an incoming req see
system.mem_ctrls.wrQLenPdf::62                      0                       # What write queue length does an incoming req see
system.mem_ctrls.wrQLenPdf::63                      0                       # What write queue length does an incoming req see
system.mem_ctrls.bytesPerActivate::samples         2065                       # Bytes accessed per row activation
system.mem_ctrls.bytesPerActivate::mean    237.776271                       # Bytes accessed per row activation
system.mem_ctrls.bytesPerActivate::gmean   144.726278                       # Bytes accessed per row activation
system.mem_ctrls.bytesPerActivate::stdev   276.571056                       # Bytes accessed per row activation
system.mem_ctrls.bytesPerActivate::0-127          952     46.10%     46.10% # Bytes accessed per row activation
system.mem_ctrls.bytesPerActivate::128-255          504     24.41%     70.51% # Bytes accessed per row activation
system.mem_ctrls.bytesPerActivate::256-383          196      9.49%     80.00% # Bytes accessed per row activation
system.mem_ctrls.bytesPerActivate::384-511          110      5.33%     85.33% # Bytes accessed per row activation
system.mem_ctrls.bytesPerActivate::512-639           68      3.29%     88.62% # Bytes accessed per row activation
system.mem_ctrls.bytesPerActivate::640-767           40      1.94%     90.56% # Bytes accessed per row activation
system.mem_ctrls.bytesPerActivate::768-895           33      1.60%     92.15% # Bytes accessed per row activation
system.mem_ctrls.bytesPerActivate::896-1023           20      0.97%     93.12% # Bytes accessed per row activation
system.mem_ctrls.bytesPerActivate::1024-1151          142      6.88%    100.00% # Bytes accessed per row activation
system.mem_ctrls.bytesPerActivate::total         2065                       # Bytes accessed per row activation
system.mem_ctrls.rdPerTurnAround::samples          144                       # Reads before turning the bus around for writes
system.mem_ctrls.rdPerTurnAround::mean      36.618056                       # Reads before turning the bus around for writes
system.mem_ctrls.rdPerTurnAround::gmean     31.292241                       # Reads before turning the bus around for writes
system.mem_ctrls.rdPerTurnAround::stdev     24.455753                       # Reads before turning the bus around for writes
system.mem_ctrls.rdPerTurnAround::0-7               1      0.69%      0.69% # Reads before turning the bus around for writes
system.mem_ctrls.rdPerTurnAround::8-15              4      2.78%      3.47% # Reads before turning the bus around for writes
system.mem_ctrls.rdPerTurnAround::16-23            46     31.94%     35.42% # Reads before turning the bus around for writes
system.mem_ctrls.rdPerTurnAround::24-31            28     19.44%     54.86% # Reads before turning the bus around for writes
system.mem_ctrls.rdPerTurnAround::32-39            19     13.19%     68.06% # Reads before turning the bus around for writes
system.mem_ctrls.rdPerTurnAround::40-47            13      9.03%     77.08% # Reads before turning the bus around for writes
system.mem_ctrls.rdPerTurnAround::48-55            14      9.72%     86.81% # Reads before turning the bus around for writes
system.mem_ctrls.rdPerTurnAround::56-63             6      4.17%     90.97% # Reads before turning the bus around for writes
system.mem_ctrls.rdPerTurnAround::64-71             4      2.78%     93.75% # Reads before turning the bus around for writes
system.mem_ctrls.rdPerTurnAround::72-79             1      0.69%     94.44% # Reads before turning the bus around for writes
system.mem_ctrls.rdPerTurnAround::80-87             1      0.69%     95.14% # Reads before turning the bus around for writes
system.mem_ctrls.rdPerTurnAround::88-95             1      0.69%     95.83% # Reads before turning the bus around for writes
system.mem_ctrls.rdPerTurnAround::96-103            1      0.69%     96.53% # Reads before turning the bus around for writes
system.mem_ctrls.rdPerTurnAround::104-111            2      1.39%     97.92% # Reads before turning the bus around for writes
system.mem_ctrls.rdPerTurnAround::112-119            1      0.69%     98.61% # Reads before turning the bus around for writes
system.mem_ctrls.rdPerTurnAround::144-151            1      0.69%     99.31% # Reads before turning the bus around for writes
system.mem_ctrls.rdPerTurnAround::168-175            1      0.69%    100.00% # Reads before turning the bus around for writes
system.mem_ctrls.rdPerTurnAround::total           144                       # Reads before turning the bus around for writes
system.mem_ctrls.wrPerTurnAround::samples          144                       # Writes before turning the bus around for reads
system.mem_ctrls.wrPerTurnAround::mean      16.687500                       # Writes before turning the bus around for reads
system.mem_ctrls.wrPerTurnAround::gmean     16.653247                       # Writes before turning the bus around for reads
system.mem_ctrls.wrPerTurnAround::stdev      1.099706                       # Writes before turning the bus around for reads
system.mem_ctrls.wrPerTurnAround::16              100     69.44%     69.44% # Writes before turning the bus around for reads
system.mem_ctrls.wrPerTurnAround::17                3      2.08%     71.53% # Writes before turning the bus around for reads
system.mem_ctrls.wrPerTurnAround::18               29     20.14%     91.67% # Writes before turning the bus around for reads
system.mem_ctrls.wrPerTurnAround::19               10      6.94%     98.61% # Writes before turning the bus around for reads
system.mem_ctrls.wrPerTurnAround::20                2      1.39%    100.00% # Writes before turning the bus around for reads
system.mem_ctrls.wrPerTurnAround::total           144                       # Writes before turning the bus around for reads
system.mem_ctrls.totQLat                     75451500                       # Total ticks spent queuing
system.mem_ctrls.totMemAccLat               174582750                       # Total ticks spent from burst creation until serviced by the DRAM
system.mem_ctrls.totBusLat                   26435000                       # Total ticks spent in databus transfers
system.mem_ctrls.avgQLat                     14271.14                       # Average queueing delay per DRAM burst
system.mem_ctrls.avgBusLat                    5000.00                       # Average bus latency per DRAM burst
system.mem_ctrls.avgMemAccLat                33021.14                       # Average memory access latency per DRAM burst
system.mem_ctrls.avgRdBW                       507.07                       # Average DRAM read bandwidth in MiByte/s
system.mem_ctrls.avgWrBW                       230.47                       # Average achieved write bandwidth in MiByte/s
system.mem_ctrls.avgRdBWSys                    509.66                       # Average system read bandwidth in MiByte/s
system.mem_ctrls.avgWrBWSys                    232.77                       # Average system write bandwidth in MiByte/s
system.mem_ctrls.peakBW                      12800.00                       # Theoretical peak bandwidth in MiByte/s
system.mem_ctrls.busUtil                         5.76                       # Data bus utilization in percentage
system.mem_ctrls.busUtilRead                     3.96                       # Data bus utilization in percentage for reads
system.mem_ctrls.busUtilWrite                    1.80                       # Data bus utilization in percentage for writes
system.mem_ctrls.avgRdQLen                       1.37                       # Average read queue length when enqueuing
system.mem_ctrls.avgWrQLen                      25.15                       # Average write queue length when enqueuing
system.mem_ctrls.readRowHits                     4041                       # Number of row buffer hits during reads
system.mem_ctrls.writeRowHits                    1578                       # Number of row buffer hits during writes
system.mem_ctrls.readRowHitRate                 76.43                       # Row buffer hit rate for reads
system.mem_ctrls.writeRowHitRate                65.02                       # Row buffer hit rate for writes
system.mem_ctrls.avgGap                      85917.97                       # Average gap between requests
system.mem_ctrls.pageHitRate                    72.84                       # Row buffer hit rate, read and write combined
system.mem_ctrls_0.actEnergy                  7862400                       # Energy for activate commands per rank (pJ)
system.mem_ctrls_0.preEnergy                  4290000                       # Energy for precharge commands per rank (pJ)
system.mem_ctrls_0.readEnergy                19585800                       # Energy for read commands per rank (pJ)
system.mem_ctrls_0.writeEnergy                9428400                       # Energy for write commands per rank (pJ)
system.mem_ctrls_0.refreshEnergy             43227600                       # Energy for refresh commands per rank (pJ)
system.mem_ctrls_0.actBackEnergy            377190945                       # Energy for active background per rank (pJ)
system.mem_ctrls_0.preBackEnergy             66385500                       # Energy for precharge background per rank (pJ)
system.mem_ctrls_0.totalEnergy              527970645                       # Total energy per rank (pJ)
system.mem_ctrls_0.averagePower            797.428821                       # Core power per rank (mW)
system.mem_ctrls_0.memoryStateTime::IDLE    108748000                       # Time in different power states
system.mem_ctrls_0.memoryStateTime::REF      22100000                       # Time in different power states
system.mem_ctrls_0.memoryStateTime::PRE_PDN            0                       # Time in different power states
system.mem_ctrls_0.memoryStateTime::ACT     531812000                       # Time in different power states
system.mem_ctrls_0.memoryStateTime::ACT_PDN            0                       # Time in different power states
system.mem_ctrls_1.actEnergy                  7688520                       # Energy for activate commands per rank (pJ)
system.mem_ctrls_1.preEnergy                  4195125                       # Energy for precharge commands per rank (pJ)
system.mem_ctrls_1.readEnergy                21395400                       # Energy for read commands per rank (pJ)
system.mem_ctrls_1.writeEnergy                6039360                       # Energy for write commands per rank (pJ)
system.mem_ctrls_1.refreshEnergy             43227600                       # Energy for refresh commands per rank (pJ)
system.mem_ctrls_1.actBackEnergy            401871375                       # Energy for active background per rank (pJ)
system.mem_ctrls_1.preBackEnergy             44736750                       # Energy for precharge background per rank (pJ)
system.mem_ctrls_1.totalEnergy              529154130                       # Total energy per rank (pJ)
system.mem_ctrls_1.averagePower            799.214808                       # Core power per rank (mW)
system.mem_ctrls_1.memoryStateTime::IDLE     71951500                       # Time in different power states
system.mem_ctrls_1.memoryStateTime::REF      22100000                       # Time in different power states
system.mem_ctrls_1.memoryStateTime::PRE_PDN            0                       # Time in different power states
system.mem_ctrls_1.memoryStateTime::ACT     568533000                       # Time in different power states
system.mem_ctrls_1.memoryStateTime::ACT_PDN            0                       # Time in different power states
system.cpu_voltage_domain.voltage                   1                       # Voltage in Volts
system.cpu_clk_domain.clock                       500                       # Clock period in ticks
system.cpu.dtb.fetch_hits                           0                       # ITB hits
system.cpu.dtb.fetch_misses                         0                       # ITB misses
system.cpu.dtb.fetch_acv                            0                       # ITB acv
system.cpu.dtb.fetch_accesses                       0                       # ITB accesses
system.cpu.dtb.read_hits                            0                       # DTB read hits
system.cpu.dtb.read_misses                          0                       # DTB read misses
system.cpu.dtb.read_acv                             0                       # DTB read access violations
system.cpu.dtb.read_accesses                        0                       # DTB read accesses
system.cpu.dtb.write_hits                           0                       # DTB write hits
system.cpu.dtb.write_misses                         0                       # DTB write misses
system.cpu.dtb.write_acv                            0                       # DTB write access violations
system.cpu.dtb.write_accesses                       0                       # DTB write accesses
system.cpu.dtb.data_hits                            0                       # DTB hits
system.cpu.dtb.data_misses                          0                       # DTB misses
system.cpu.dtb.data_acv                             0                       # DTB access violations
system.cpu.dtb.data_accesses                        0                       # DTB accesses
system.cpu.itb.fetch_hits                           0                       # ITB hits
system.cpu.itb.fetch_misses                         0                       # ITB misses
system.cpu.itb.fetch_acv                            0                       # ITB acv
system.cpu.itb.fetch_accesses                       0                       # ITB accesses
system.cpu.itb.read_hits                            0                       # DTB read hits
system.cpu.itb.read_misses                          0                       # DTB read misses
system.cpu.itb.read_acv                             0                       # DTB read access violations
system.cpu.itb.read_accesses                        0                       # DTB read accesses
system.cpu.itb.write_hits                           0                       # DTB write hits
system.cpu.itb.write_misses                         0                       # DTB write misses
system.cpu.itb.write_acv                            0                       # DTB write access violations
system.cpu.itb.write_accesses                       0                       # DTB write accesses
system.cpu.itb.data_hits                            0                       # DTB hits
system.cpu.itb.data_misses                          0                       # DTB misses
system.cpu.itb.data_acv                             0                       # DTB access violations
system.cpu.itb.data_accesses                        0                       # DTB accesses
system.cpu.numCycles                                0                       # number of cpu cycles simulated
system.cpu.numWorkItemsStarted                      0                       # number of work items this cpu started
system.cpu.numWorkItemsCompleted                    0                       # number of work items this cpu completed
system.cpu.committedInsts                           0                       # Number of instructions committed
system.cpu.committedOps                             0                       # Number of ops (including micro ops) committed
system.cpu.num_int_alu_accesses                     0                       # Number of integer alu accesses
system.cpu.num_fp_alu_accesses                      0                       # Number of float alu accesses
system.cpu.num_func_calls                           0                       # number of times a function call or return occured
system.cpu.num_conditional_control_insts            0                       # number of instructions that are conditional controls
system.cpu.num_int_insts                            0                       # number of integer instructions
system.cpu.num_fp_insts                             0                       # number of float instructions
system.cpu.num_int_register_reads                   0                       # number of times the integer registers were read
system.cpu.num_int_register_writes                  0                       # number of times the integer registers were written
system.cpu.num_fp_register_reads                    0                       # number of times the floating registers were read
system.cpu.num_fp_register_writes                   0                       # number of times the floating registers were written
system.cpu.num_mem_refs                             0                       # number of memory refs
system.cpu.num_load_insts                           0                       # Number of load instructions
system.cpu.num_store_insts                          0                       # Number of store instructions
system.cpu.num_idle_cycles                          0                       # Number of idle cycles
system.cpu.num_busy_cycles                          0                       # Number of busy cycles
system.cpu.not_idle_fraction                        1                       # Percentage of non-idle cycles
system.cpu.idle_fraction                            0                       # Percentage of idle cycles
system.cpu.op_class::No_OpClass                     0                       # Class of executed instruction
system.cpu.op_class::IntAlu                         0                       # Class of executed instruction
system.cpu.op_class::IntMult                        0                       # Class of executed instruction
system.cpu.op_class::IntDiv                         0                       # Class of executed instruction
system.cpu.op_class::FloatAdd                       0                       # Class of executed instruction
system.cpu.op_class::FloatCmp                       0                       # Class of executed instruction
system.cpu.op_class::FloatCvt                       0                       # Class of executed instruction
system.cpu.op_class::FloatMult                      0                       # Class of executed instruction
system.cpu.op_class::FloatDiv                       0                       # Class of executed instruction
system.cpu.op_class::FloatSqrt                      0                       # Class of executed instruction
system.cpu.op_class::SimdAdd                        0                       # Class of executed instruction
system.cpu.op_class::SimdAddAcc                     0                       # Class of executed instruction
system.cpu.op_class::SimdAlu                        0                       # Class of executed instruction
system.cpu.op_class::SimdCmp                        0                       # Class of executed instruction
system.cpu.op_class::SimdCvt                        0                       # Class of executed instruction
system.cpu.op_class::SimdMisc                       0                       # Class of executed instruction
system.cpu.op_class::SimdMult                       0                       # Class of executed instruction
system.cpu.op_class::SimdMultAcc                    0                       # Class of executed instruction
system.cpu.op_class::SimdShift                      0                       # Class of executed instruction
system.cpu.op_class::SimdShiftAcc                   0                       # Class of executed instruction
system.cpu.op_class::SimdSqrt                       0                       # Class of executed instruction
system.cpu.op_class::SimdFloatAdd                   0                       # Class of executed instruction
system.cpu.op_class::SimdFloatAlu                   0                       # Class of executed instruction
system.cpu.op_class::SimdFloatCmp                   0                       # Class of executed instruction
system.cpu.op_class::SimdFloatCvt                   0                       # Class of executed instruction
system.cpu.op_class::SimdFloatDiv                   0                       # Class of executed instruction
system.cpu.op_class::SimdFloatMisc                  0                       # Class of executed instruction
system.cpu.op_class::SimdFloatMult                  0                       # Class of executed instruction
system.cpu.op_class::SimdFloatMultAcc               0                       # Class of executed instruction
system.cpu.op_class::SimdFloatSqrt                  0                       # Class of executed instruction
system.cpu.op_class::MemRead                        0                       # Class of executed instruction
system.cpu.op_class::MemWrite                       0                       # Class of executed instruction
system.cpu.op_class::IprAccess                      0                       # Class of executed instruction
system.cpu.op_class::InstPrefetch                   0                       # Class of executed instruction
system.cpu.op_class::total                          0                       # Class of executed instruction
system.cpu.kern.inst.arm                            0                       # number of arm instructions executed
system.cpu.kern.inst.quiesce                        0                       # number of quiesce instructions executed
system.cpu.kern.inst.hwrei                       2786                       # number of hwrei instructions executed
system.cpu.kern.ipl_count::0                      635     49.11%     49.11% # number of times we switched to this ipl
system.cpu.kern.ipl_count::22                       1      0.08%     49.19% # number of times we switched to this ipl
system.cpu.kern.ipl_count::31                     657     50.81%    100.00% # number of times we switched to this ipl
system.cpu.kern.ipl_count::total                 1293                       # number of times we switched to this ipl
system.cpu.kern.ipl_good::0                       633     49.96%     49.96% # number of times we switched to this ipl from a different ipl
system.cpu.kern.ipl_good::22                        1      0.08%     50.04% # number of times we switched to this ipl from a different ipl
system.cpu.kern.ipl_good::31                      633     49.96%    100.00% # number of times we switched to this ipl from a different ipl
system.cpu.kern.ipl_good::total                  1267                       # number of times we switched to this ipl from a different ipl
system.cpu.kern.ipl_ticks::0                602361000     90.34%     90.34% # number of cycles we spent at this ipl
system.cpu.kern.ipl_ticks::22                 1075000      0.16%     90.50% # number of cycles we spent at this ipl
system.cpu.kern.ipl_ticks::31                63370000      9.50%    100.00% # number of cycles we spent at this ipl
system.cpu.kern.ipl_ticks::total            666806000                       # number of cycles we spent at this ipl
system.cpu.kern.ipl_used::0                  0.996850                       # fraction of swpipl calls that actually changed the ipl
system.cpu.kern.ipl_used::22                        1                       # fraction of swpipl calls that actually changed the ipl
system.cpu.kern.ipl_used::31                 0.963470                       # fraction of swpipl calls that actually changed the ipl
system.cpu.kern.ipl_used::total              0.979892                       # fraction of swpipl calls that actually changed the ipl
system.cpu.kern.syscall::2                          1      5.56%      5.56% # number of syscalls executed
system.cpu.kern.syscall::3                          2     11.11%     16.67% # number of syscalls executed
system.cpu.kern.syscall::6                          2     11.11%     27.78% # number of syscalls executed
system.cpu.kern.syscall::17                         1      5.56%     33.33% # number of syscalls executed
system.cpu.kern.syscall::19                         1      5.56%     38.89% # number of syscalls executed
system.cpu.kern.syscall::33                         1      5.56%     44.44% # number of syscalls executed
system.cpu.kern.syscall::45                         3     16.67%     61.11% # number of syscalls executed
system.cpu.kern.syscall::48                         1      5.56%     66.67% # number of syscalls executed
system.cpu.kern.syscall::59                         1      5.56%     72.22% # number of syscalls executed
system.cpu.kern.syscall::71                         4     22.22%     94.44% # number of syscalls executed
system.cpu.kern.syscall::74                         1      5.56%    100.00% # number of syscalls executed
system.cpu.kern.syscall::total                     18                       # number of syscalls executed
system.cpu.kern.callpal::swpctx                   118      8.09%      8.09% # number of callpals executed
system.cpu.kern.callpal::tbi                        6      0.41%      8.50% # number of callpals executed
system.cpu.kern.callpal::swpipl                  1108     75.99%     84.50% # number of callpals executed
system.cpu.kern.callpal::rdps                       3      0.21%     84.71% # number of callpals executed
system.cpu.kern.callpal::wrusp                      1      0.07%     84.77% # number of callpals executed
system.cpu.kern.callpal::rdusp                      1      0.07%     84.84% # number of callpals executed
system.cpu.kern.callpal::rti                      184     12.62%     97.46% # number of callpals executed
system.cpu.kern.callpal::callsys                   33      2.26%     99.73% # number of callpals executed
system.cpu.kern.callpal::imb                        4      0.27%    100.00% # number of callpals executed
system.cpu.kern.callpal::total                   1458                       # number of callpals executed
system.cpu.kern.mode_switch::kernel               302                       # number of protection mode switches
system.cpu.kern.mode_switch::user                 182                       # number of protection mode switches
system.cpu.kern.mode_switch::idle                   0                       # number of protection mode switches
system.cpu.kern.mode_good::kernel                 182                      
system.cpu.kern.mode_good::user                   182                      
system.cpu.kern.mode_good::idle                     0                      
system.cpu.kern.mode_switch_good::kernel     0.602649                       # fraction of useful protection mode switches
system.cpu.kern.mode_switch_good::user              1                       # fraction of useful protection mode switches
system.cpu.kern.mode_switch_good::idle            nan                       # fraction of useful protection mode switches
system.cpu.kern.mode_switch_good::total      0.752066                       # fraction of useful protection mode switches
system.cpu.kern.mode_ticks::kernel          432957500     64.93%     64.93% # number of ticks spent at the given mode
system.cpu.kern.mode_ticks::user            233841500     35.07%    100.00% # number of ticks spent at the given mode
system.cpu.kern.mode_ticks::idle                    0      0.00%    100.00% # number of ticks spent at the given mode
system.cpu.kern.swap_context                      118                       # number of times the context was actually changed
system.cpu.dcache.tags.replacements             18358                       # number of replacements
system.cpu.dcache.tags.tagsinuse                  512                       # Cycle average of tags in use
system.cpu.dcache.tags.total_refs              199885                       # Total number of references to valid blocks.
system.cpu.dcache.tags.sampled_refs             18358                       # Sample count of references to valid blocks.
system.cpu.dcache.tags.avg_refs             10.888169                       # Average number of references to valid blocks.
system.cpu.dcache.tags.warmup_cycle                 0                       # Cycle when the warmup percentage was hit.
system.cpu.dcache.tags.occ_blocks::cpu.data    25.908835                       # Average occupied blocks per requestor
system.cpu.dcache.tags.occ_blocks::switch_cpus.data   486.091165                       # Average occupied blocks per requestor
system.cpu.dcache.tags.occ_percent::cpu.data     0.050603                       # Average percentage of cache occupancy
system.cpu.dcache.tags.occ_percent::switch_cpus.data     0.949397                       # Average percentage of cache occupancy
system.cpu.dcache.tags.occ_percent::total            1                       # Average percentage of cache occupancy
system.cpu.dcache.tags.occ_task_id_blocks::1024          512                       # Occupied blocks per task id
system.cpu.dcache.tags.age_task_id_blocks_1024::0          338                       # Occupied blocks per task id
system.cpu.dcache.tags.age_task_id_blocks_1024::1          173                       # Occupied blocks per task id
system.cpu.dcache.tags.age_task_id_blocks_1024::2            1                       # Occupied blocks per task id
system.cpu.dcache.tags.occ_task_id_percent::1024            1                       # Percentage of cache occupancy per task id
system.cpu.dcache.tags.tag_accesses           1182758                       # Number of tag accesses
system.cpu.dcache.tags.data_accesses          1182758                       # Number of data accesses
system.cpu.dcache.ReadReq_hits::switch_cpus.data       133308                       # number of ReadReq hits
system.cpu.dcache.ReadReq_hits::total          133308                       # number of ReadReq hits
system.cpu.dcache.WriteReq_hits::switch_cpus.data        59075                       # number of WriteReq hits
system.cpu.dcache.WriteReq_hits::total          59075                       # number of WriteReq hits
system.cpu.dcache.LoadLockedReq_hits::switch_cpus.data         2231                       # number of LoadLockedReq hits
system.cpu.dcache.LoadLockedReq_hits::total         2231                       # number of LoadLockedReq hits
system.cpu.dcache.StoreCondReq_hits::switch_cpus.data         2378                       # number of StoreCondReq hits
system.cpu.dcache.StoreCondReq_hits::total         2378                       # number of StoreCondReq hits
system.cpu.dcache.demand_hits::switch_cpus.data       192383                       # number of demand (read+write) hits
system.cpu.dcache.demand_hits::total           192383                       # number of demand (read+write) hits
system.cpu.dcache.overall_hits::switch_cpus.data       192383                       # number of overall hits
system.cpu.dcache.overall_hits::total          192383                       # number of overall hits
system.cpu.dcache.ReadReq_misses::switch_cpus.data        26515                       # number of ReadReq misses
system.cpu.dcache.ReadReq_misses::total         26515                       # number of ReadReq misses
system.cpu.dcache.WriteReq_misses::switch_cpus.data        67196                       # number of WriteReq misses
system.cpu.dcache.WriteReq_misses::total        67196                       # number of WriteReq misses
system.cpu.dcache.LoadLockedReq_misses::switch_cpus.data          397                       # number of LoadLockedReq misses
system.cpu.dcache.LoadLockedReq_misses::total          397                       # number of LoadLockedReq misses
system.cpu.dcache.demand_misses::switch_cpus.data        93711                       # number of demand (read+write) misses
system.cpu.dcache.demand_misses::total          93711                       # number of demand (read+write) misses
system.cpu.dcache.overall_misses::switch_cpus.data        93711                       # number of overall misses
system.cpu.dcache.overall_misses::total         93711                       # number of overall misses
system.cpu.dcache.ReadReq_miss_latency::switch_cpus.data    697323998                       # number of ReadReq miss cycles
system.cpu.dcache.ReadReq_miss_latency::total    697323998                       # number of ReadReq miss cycles
system.cpu.dcache.WriteReq_miss_latency::switch_cpus.data   1813948995                       # number of WriteReq miss cycles
system.cpu.dcache.WriteReq_miss_latency::total   1813948995                       # number of WriteReq miss cycles
system.cpu.dcache.LoadLockedReq_miss_latency::switch_cpus.data      6981000                       # number of LoadLockedReq miss cycles
system.cpu.dcache.LoadLockedReq_miss_latency::total      6981000                       # number of LoadLockedReq miss cycles
system.cpu.dcache.demand_miss_latency::switch_cpus.data   2511272993                       # number of demand (read+write) miss cycles
system.cpu.dcache.demand_miss_latency::total   2511272993                       # number of demand (read+write) miss cycles
system.cpu.dcache.overall_miss_latency::switch_cpus.data   2511272993                       # number of overall miss cycles
system.cpu.dcache.overall_miss_latency::total   2511272993                       # number of overall miss cycles
system.cpu.dcache.ReadReq_accesses::switch_cpus.data       159823                       # number of ReadReq accesses(hits+misses)
system.cpu.dcache.ReadReq_accesses::total       159823                       # number of ReadReq accesses(hits+misses)
system.cpu.dcache.WriteReq_accesses::switch_cpus.data       126271                       # number of WriteReq accesses(hits+misses)
system.cpu.dcache.WriteReq_accesses::total       126271                       # number of WriteReq accesses(hits+misses)
system.cpu.dcache.LoadLockedReq_accesses::switch_cpus.data         2628                       # number of LoadLockedReq accesses(hits+misses)
system.cpu.dcache.LoadLockedReq_accesses::total         2628                       # number of LoadLockedReq accesses(hits+misses)
system.cpu.dcache.StoreCondReq_accesses::switch_cpus.data         2378                       # number of StoreCondReq accesses(hits+misses)
system.cpu.dcache.StoreCondReq_accesses::total         2378                       # number of StoreCondReq accesses(hits+misses)
system.cpu.dcache.demand_accesses::switch_cpus.data       286094                       # number of demand (read+write) accesses
system.cpu.dcache.demand_accesses::total       286094                       # number of demand (read+write) accesses
system.cpu.dcache.overall_accesses::switch_cpus.data       286094                       # number of overall (read+write) accesses
system.cpu.dcache.overall_accesses::total       286094                       # number of overall (read+write) accesses
system.cpu.dcache.ReadReq_miss_rate::switch_cpus.data     0.165902                       # miss rate for ReadReq accesses
system.cpu.dcache.ReadReq_miss_rate::total     0.165902                       # miss rate for ReadReq accesses
system.cpu.dcache.WriteReq_miss_rate::switch_cpus.data     0.532157                       # miss rate for WriteReq accesses
system.cpu.dcache.WriteReq_miss_rate::total     0.532157                       # miss rate for WriteReq accesses
system.cpu.dcache.LoadLockedReq_miss_rate::switch_cpus.data     0.151065                       # miss rate for LoadLockedReq accesses
system.cpu.dcache.LoadLockedReq_miss_rate::total     0.151065                       # miss rate for LoadLockedReq accesses
system.cpu.dcache.demand_miss_rate::switch_cpus.data     0.327553                       # miss rate for demand accesses
system.cpu.dcache.demand_miss_rate::total     0.327553                       # miss rate for demand accesses
system.cpu.dcache.overall_miss_rate::switch_cpus.data     0.327553                       # miss rate for overall accesses
system.cpu.dcache.overall_miss_rate::total     0.327553                       # miss rate for overall accesses
system.cpu.dcache.ReadReq_avg_miss_latency::switch_cpus.data 26299.226777                       # average ReadReq miss latency
system.cpu.dcache.ReadReq_avg_miss_latency::total 26299.226777                       # average ReadReq miss latency
system.cpu.dcache.WriteReq_avg_miss_latency::switch_cpus.data 26994.895455                       # average WriteReq miss latency
system.cpu.dcache.WriteReq_avg_miss_latency::total 26994.895455                       # average WriteReq miss latency
system.cpu.dcache.LoadLockedReq_avg_miss_latency::switch_cpus.data 17584.382872                       # average LoadLockedReq miss latency
system.cpu.dcache.LoadLockedReq_avg_miss_latency::total 17584.382872                       # average LoadLockedReq miss latency
system.cpu.dcache.demand_avg_miss_latency::switch_cpus.data 26798.059918                       # average overall miss latency
system.cpu.dcache.demand_avg_miss_latency::total 26798.059918                       # average overall miss latency
system.cpu.dcache.overall_avg_miss_latency::switch_cpus.data 26798.059918                       # average overall miss latency
system.cpu.dcache.overall_avg_miss_latency::total 26798.059918                       # average overall miss latency
system.cpu.dcache.blocked_cycles::no_mshrs        77041                       # number of cycles access was blocked
system.cpu.dcache.blocked_cycles::no_targets            8                       # number of cycles access was blocked
system.cpu.dcache.blocked::no_mshrs              4632                       # number of cycles access was blocked
system.cpu.dcache.blocked::no_targets               1                       # number of cycles access was blocked
system.cpu.dcache.avg_blocked_cycles::no_mshrs    16.632340                       # average number of cycles each access was blocked
system.cpu.dcache.avg_blocked_cycles::no_targets            8                       # average number of cycles each access was blocked
system.cpu.dcache.fast_writes                       0                       # number of fast writes performed
system.cpu.dcache.cache_copies                      0                       # number of cache copies performed
system.cpu.dcache.writebacks::writebacks        13085                       # number of writebacks
system.cpu.dcache.writebacks::total             13085                       # number of writebacks
system.cpu.dcache.ReadReq_mshr_hits::switch_cpus.data        17486                       # number of ReadReq MSHR hits
system.cpu.dcache.ReadReq_mshr_hits::total        17486                       # number of ReadReq MSHR hits
system.cpu.dcache.WriteReq_mshr_hits::switch_cpus.data        58091                       # number of WriteReq MSHR hits
system.cpu.dcache.WriteReq_mshr_hits::total        58091                       # number of WriteReq MSHR hits
system.cpu.dcache.LoadLockedReq_mshr_hits::switch_cpus.data          171                       # number of LoadLockedReq MSHR hits
system.cpu.dcache.LoadLockedReq_mshr_hits::total          171                       # number of LoadLockedReq MSHR hits
system.cpu.dcache.demand_mshr_hits::switch_cpus.data        75577                       # number of demand (read+write) MSHR hits
system.cpu.dcache.demand_mshr_hits::total        75577                       # number of demand (read+write) MSHR hits
system.cpu.dcache.overall_mshr_hits::switch_cpus.data        75577                       # number of overall MSHR hits
system.cpu.dcache.overall_mshr_hits::total        75577                       # number of overall MSHR hits
system.cpu.dcache.ReadReq_mshr_misses::switch_cpus.data         9029                       # number of ReadReq MSHR misses
system.cpu.dcache.ReadReq_mshr_misses::total         9029                       # number of ReadReq MSHR misses
system.cpu.dcache.WriteReq_mshr_misses::switch_cpus.data         9105                       # number of WriteReq MSHR misses
system.cpu.dcache.WriteReq_mshr_misses::total         9105                       # number of WriteReq MSHR misses
system.cpu.dcache.LoadLockedReq_mshr_misses::switch_cpus.data          226                       # number of LoadLockedReq MSHR misses
system.cpu.dcache.LoadLockedReq_mshr_misses::total          226                       # number of LoadLockedReq MSHR misses
system.cpu.dcache.demand_mshr_misses::switch_cpus.data        18134                       # number of demand (read+write) MSHR misses
system.cpu.dcache.demand_mshr_misses::total        18134                       # number of demand (read+write) MSHR misses
system.cpu.dcache.overall_mshr_misses::switch_cpus.data        18134                       # number of overall MSHR misses
system.cpu.dcache.overall_mshr_misses::total        18134                       # number of overall MSHR misses
system.cpu.dcache.WriteReq_mshr_uncacheable::switch_cpus.data            1                       # number of WriteReq MSHR uncacheable
system.cpu.dcache.WriteReq_mshr_uncacheable::total            1                       # number of WriteReq MSHR uncacheable
system.cpu.dcache.overall_mshr_uncacheable_misses::switch_cpus.data            1                       # number of overall MSHR uncacheable misses
system.cpu.dcache.overall_mshr_uncacheable_misses::total            1                       # number of overall MSHR uncacheable misses
system.cpu.dcache.ReadReq_mshr_miss_latency::switch_cpus.data    224232752                       # number of ReadReq MSHR miss cycles
system.cpu.dcache.ReadReq_mshr_miss_latency::total    224232752                       # number of ReadReq MSHR miss cycles
system.cpu.dcache.WriteReq_mshr_miss_latency::switch_cpus.data    250870807                       # number of WriteReq MSHR miss cycles
system.cpu.dcache.WriteReq_mshr_miss_latency::total    250870807                       # number of WriteReq MSHR miss cycles
system.cpu.dcache.LoadLockedReq_mshr_miss_latency::switch_cpus.data      4100000                       # number of LoadLockedReq MSHR miss cycles
system.cpu.dcache.LoadLockedReq_mshr_miss_latency::total      4100000                       # number of LoadLockedReq MSHR miss cycles
system.cpu.dcache.demand_mshr_miss_latency::switch_cpus.data    475103559                       # number of demand (read+write) MSHR miss cycles
system.cpu.dcache.demand_mshr_miss_latency::total    475103559                       # number of demand (read+write) MSHR miss cycles
system.cpu.dcache.overall_mshr_miss_latency::switch_cpus.data    475103559                       # number of overall MSHR miss cycles
system.cpu.dcache.overall_mshr_miss_latency::total    475103559                       # number of overall MSHR miss cycles
system.cpu.dcache.WriteReq_mshr_uncacheable_latency::switch_cpus.data       227500                       # number of WriteReq MSHR uncacheable cycles
system.cpu.dcache.WriteReq_mshr_uncacheable_latency::total       227500                       # number of WriteReq MSHR uncacheable cycles
system.cpu.dcache.overall_mshr_uncacheable_latency::switch_cpus.data       227500                       # number of overall MSHR uncacheable cycles
system.cpu.dcache.overall_mshr_uncacheable_latency::total       227500                       # number of overall MSHR uncacheable cycles
system.cpu.dcache.ReadReq_mshr_miss_rate::switch_cpus.data     0.056494                       # mshr miss rate for ReadReq accesses
system.cpu.dcache.ReadReq_mshr_miss_rate::total     0.056494                       # mshr miss rate for ReadReq accesses
system.cpu.dcache.WriteReq_mshr_miss_rate::switch_cpus.data     0.072107                       # mshr miss rate for WriteReq accesses
system.cpu.dcache.WriteReq_mshr_miss_rate::total     0.072107                       # mshr miss rate for WriteReq accesses
system.cpu.dcache.LoadLockedReq_mshr_miss_rate::switch_cpus.data     0.085997                       # mshr miss rate for LoadLockedReq accesses
system.cpu.dcache.LoadLockedReq_mshr_miss_rate::total     0.085997                       # mshr miss rate for LoadLockedReq accesses
system.cpu.dcache.demand_mshr_miss_rate::switch_cpus.data     0.063385                       # mshr miss rate for demand accesses
system.cpu.dcache.demand_mshr_miss_rate::total     0.063385                       # mshr miss rate for demand accesses
system.cpu.dcache.overall_mshr_miss_rate::switch_cpus.data     0.063385                       # mshr miss rate for overall accesses
system.cpu.dcache.overall_mshr_miss_rate::total     0.063385                       # mshr miss rate for overall accesses
system.cpu.dcache.ReadReq_avg_mshr_miss_latency::switch_cpus.data 24834.727212                       # average ReadReq mshr miss latency
system.cpu.dcache.ReadReq_avg_mshr_miss_latency::total 24834.727212                       # average ReadReq mshr miss latency
system.cpu.dcache.WriteReq_avg_mshr_miss_latency::switch_cpus.data 27553.081494                       # average WriteReq mshr miss latency
system.cpu.dcache.WriteReq_avg_mshr_miss_latency::total 27553.081494                       # average WriteReq mshr miss latency
system.cpu.dcache.LoadLockedReq_avg_mshr_miss_latency::switch_cpus.data 18141.592920                       # average LoadLockedReq mshr miss latency
system.cpu.dcache.LoadLockedReq_avg_mshr_miss_latency::total 18141.592920                       # average LoadLockedReq mshr miss latency
system.cpu.dcache.demand_avg_mshr_miss_latency::switch_cpus.data 26199.600695                       # average overall mshr miss latency
system.cpu.dcache.demand_avg_mshr_miss_latency::total 26199.600695                       # average overall mshr miss latency
system.cpu.dcache.overall_avg_mshr_miss_latency::switch_cpus.data 26199.600695                       # average overall mshr miss latency
system.cpu.dcache.overall_avg_mshr_miss_latency::total 26199.600695                       # average overall mshr miss latency
system.cpu.dcache.WriteReq_avg_mshr_uncacheable_latency::switch_cpus.data       227500                       # average WriteReq mshr uncacheable latency
system.cpu.dcache.WriteReq_avg_mshr_uncacheable_latency::total       227500                       # average WriteReq mshr uncacheable latency
system.cpu.dcache.overall_avg_mshr_uncacheable_latency::switch_cpus.data       227500                       # average overall mshr uncacheable latency
system.cpu.dcache.overall_avg_mshr_uncacheable_latency::total       227500                       # average overall mshr uncacheable latency
system.cpu.dcache.no_allocate_misses                0                       # Number of misses that were no-allocate
system.cpu.icache.tags.replacements             10330                       # number of replacements
system.cpu.icache.tags.tagsinuse           511.871250                       # Cycle average of tags in use
system.cpu.icache.tags.total_refs              361264                       # Total number of references to valid blocks.
system.cpu.icache.tags.sampled_refs             10330                       # Sample count of references to valid blocks.
system.cpu.icache.tags.avg_refs             34.972314                       # Average number of references to valid blocks.
system.cpu.icache.tags.warmup_cycle                 0                       # Cycle when the warmup percentage was hit.
system.cpu.icache.tags.occ_blocks::cpu.inst    22.866033                       # Average occupied blocks per requestor
system.cpu.icache.tags.occ_blocks::switch_cpus.inst   489.005217                       # Average occupied blocks per requestor
system.cpu.icache.tags.occ_percent::cpu.inst     0.044660                       # Average percentage of cache occupancy
system.cpu.icache.tags.occ_percent::switch_cpus.inst     0.955088                       # Average percentage of cache occupancy
system.cpu.icache.tags.occ_percent::total     0.999749                       # Average percentage of cache occupancy
system.cpu.icache.tags.occ_task_id_blocks::1024          511                       # Occupied blocks per task id
system.cpu.icache.tags.age_task_id_blocks_1024::0           66                       # Occupied blocks per task id
system.cpu.icache.tags.age_task_id_blocks_1024::1          111                       # Occupied blocks per task id
system.cpu.icache.tags.age_task_id_blocks_1024::2          334                       # Occupied blocks per task id
system.cpu.icache.tags.occ_task_id_percent::1024     0.998047                       # Percentage of cache occupancy per task id
system.cpu.icache.tags.tag_accesses            334291                       # Number of tag accesses
system.cpu.icache.tags.data_accesses           334291                       # Number of data accesses
system.cpu.icache.ReadReq_hits::switch_cpus.inst       150107                       # number of ReadReq hits
system.cpu.icache.ReadReq_hits::total          150107                       # number of ReadReq hits
system.cpu.icache.demand_hits::switch_cpus.inst       150107                       # number of demand (read+write) hits
system.cpu.icache.demand_hits::total           150107                       # number of demand (read+write) hits
system.cpu.icache.overall_hits::switch_cpus.inst       150107                       # number of overall hits
system.cpu.icache.overall_hits::total          150107                       # number of overall hits
system.cpu.icache.ReadReq_misses::switch_cpus.inst        11873                       # number of ReadReq misses
system.cpu.icache.ReadReq_misses::total         11873                       # number of ReadReq misses
system.cpu.icache.demand_misses::switch_cpus.inst        11873                       # number of demand (read+write) misses
system.cpu.icache.demand_misses::total          11873                       # number of demand (read+write) misses
system.cpu.icache.overall_misses::switch_cpus.inst        11873                       # number of overall misses
system.cpu.icache.overall_misses::total         11873                       # number of overall misses
system.cpu.icache.ReadReq_miss_latency::switch_cpus.inst    298679719                       # number of ReadReq miss cycles
system.cpu.icache.ReadReq_miss_latency::total    298679719                       # number of ReadReq miss cycles
system.cpu.icache.demand_miss_latency::switch_cpus.inst    298679719                       # number of demand (read+write) miss cycles
system.cpu.icache.demand_miss_latency::total    298679719                       # number of demand (read+write) miss cycles
system.cpu.icache.overall_miss_latency::switch_cpus.inst    298679719                       # number of overall miss cycles
system.cpu.icache.overall_miss_latency::total    298679719                       # number of overall miss cycles
system.cpu.icache.ReadReq_accesses::switch_cpus.inst       161980                       # number of ReadReq accesses(hits+misses)
system.cpu.icache.ReadReq_accesses::total       161980                       # number of ReadReq accesses(hits+misses)
system.cpu.icache.demand_accesses::switch_cpus.inst       161980                       # number of demand (read+write) accesses
system.cpu.icache.demand_accesses::total       161980                       # number of demand (read+write) accesses
system.cpu.icache.overall_accesses::switch_cpus.inst       161980                       # number of overall (read+write) accesses
system.cpu.icache.overall_accesses::total       161980                       # number of overall (read+write) accesses
system.cpu.icache.ReadReq_miss_rate::switch_cpus.inst     0.073299                       # miss rate for ReadReq accesses
system.cpu.icache.ReadReq_miss_rate::total     0.073299                       # miss rate for ReadReq accesses
system.cpu.icache.demand_miss_rate::switch_cpus.inst     0.073299                       # miss rate for demand accesses
system.cpu.icache.demand_miss_rate::total     0.073299                       # miss rate for demand accesses
system.cpu.icache.overall_miss_rate::switch_cpus.inst     0.073299                       # miss rate for overall accesses
system.cpu.icache.overall_miss_rate::total     0.073299                       # miss rate for overall accesses
system.cpu.icache.ReadReq_avg_miss_latency::switch_cpus.inst 25156.213173                       # average ReadReq miss latency
system.cpu.icache.ReadReq_avg_miss_latency::total 25156.213173                       # average ReadReq miss latency
system.cpu.icache.demand_avg_miss_latency::switch_cpus.inst 25156.213173                       # average overall miss latency
system.cpu.icache.demand_avg_miss_latency::total 25156.213173                       # average overall miss latency
system.cpu.icache.overall_avg_miss_latency::switch_cpus.inst 25156.213173                       # average overall miss latency
system.cpu.icache.overall_avg_miss_latency::total 25156.213173                       # average overall miss latency
system.cpu.icache.blocked_cycles::no_mshrs         1668                       # number of cycles access was blocked
system.cpu.icache.blocked_cycles::no_targets            0                       # number of cycles access was blocked
system.cpu.icache.blocked::no_mshrs                64                       # number of cycles access was blocked
system.cpu.icache.blocked::no_targets               0                       # number of cycles access was blocked
system.cpu.icache.avg_blocked_cycles::no_mshrs    26.062500                       # average number of cycles each access was blocked
system.cpu.icache.avg_blocked_cycles::no_targets          nan                       # average number of cycles each access was blocked
system.cpu.icache.fast_writes                       0                       # number of fast writes performed
system.cpu.icache.cache_copies                      0                       # number of cache copies performed
system.cpu.icache.ReadReq_mshr_hits::switch_cpus.inst         1542                       # number of ReadReq MSHR hits
system.cpu.icache.ReadReq_mshr_hits::total         1542                       # number of ReadReq MSHR hits
system.cpu.icache.demand_mshr_hits::switch_cpus.inst         1542                       # number of demand (read+write) MSHR hits
system.cpu.icache.demand_mshr_hits::total         1542                       # number of demand (read+write) MSHR hits
system.cpu.icache.overall_mshr_hits::switch_cpus.inst         1542                       # number of overall MSHR hits
system.cpu.icache.overall_mshr_hits::total         1542                       # number of overall MSHR hits
system.cpu.icache.ReadReq_mshr_misses::switch_cpus.inst        10331                       # number of ReadReq MSHR misses
system.cpu.icache.ReadReq_mshr_misses::total        10331                       # number of ReadReq MSHR misses
system.cpu.icache.demand_mshr_misses::switch_cpus.inst        10331                       # number of demand (read+write) MSHR misses
system.cpu.icache.demand_mshr_misses::total        10331                       # number of demand (read+write) MSHR misses
system.cpu.icache.overall_mshr_misses::switch_cpus.inst        10331                       # number of overall MSHR misses
system.cpu.icache.overall_mshr_misses::total        10331                       # number of overall MSHR misses
system.cpu.icache.ReadReq_mshr_miss_latency::switch_cpus.inst    240644520                       # number of ReadReq MSHR miss cycles
system.cpu.icache.ReadReq_mshr_miss_latency::total    240644520                       # number of ReadReq MSHR miss cycles
system.cpu.icache.demand_mshr_miss_latency::switch_cpus.inst    240644520                       # number of demand (read+write) MSHR miss cycles
system.cpu.icache.demand_mshr_miss_latency::total    240644520                       # number of demand (read+write) MSHR miss cycles
system.cpu.icache.overall_mshr_miss_latency::switch_cpus.inst    240644520                       # number of overall MSHR miss cycles
system.cpu.icache.overall_mshr_miss_latency::total    240644520                       # number of overall MSHR miss cycles
system.cpu.icache.ReadReq_mshr_miss_rate::switch_cpus.inst     0.063779                       # mshr miss rate for ReadReq accesses
system.cpu.icache.ReadReq_mshr_miss_rate::total     0.063779                       # mshr miss rate for ReadReq accesses
system.cpu.icache.demand_mshr_miss_rate::switch_cpus.inst     0.063779                       # mshr miss rate for demand accesses
system.cpu.icache.demand_mshr_miss_rate::total     0.063779                       # mshr miss rate for demand accesses
system.cpu.icache.overall_mshr_miss_rate::switch_cpus.inst     0.063779                       # mshr miss rate for overall accesses
system.cpu.icache.overall_mshr_miss_rate::total     0.063779                       # mshr miss rate for overall accesses
system.cpu.icache.ReadReq_avg_mshr_miss_latency::switch_cpus.inst 23293.439164                       # average ReadReq mshr miss latency
system.cpu.icache.ReadReq_avg_mshr_miss_latency::total 23293.439164                       # average ReadReq mshr miss latency
[...]
system.switch_cpus.iew.wb_producers           2635171                       # num instructions producing a value
system.switch_cpus.iew.wb_consumers           3410072                       # num instructions consuming a value
system.switch_cpus.iew.wb_penalized                 0                       # number of instrctions required to write to 'other' IQ
system.switch_cpus.iew.wb_rate               0.733912                       # insts written-back per cycle
system.switch_cpus.iew.wb_fanout             0.772761                       # average fanout of values written-back
system.switch_cpus.iew.wb_penalized_rate            0                       # fraction of instructions written-back that wrote to 'other' IQ
system.switch_cpus.commit.commitSquashedInsts       931248                       # The number of squashed insts skipped by commit
system.switch_cpus.commit.commitNonSpecStalls        69538                       # The number of times commit has been forced to stall to communicate backwards
system.switch_cpus.commit.branchMispredicts        42101                       # The number of times a branch was mispredicted
system.switch_cpus.commit.committed_per_cycle::samples      5583766                       # Number of insts commited each cycle
system.switch_cpus.commit.committed_per_cycle::mean     0.755290                       # Number of insts commited each cycle
system.switch_cpus.commit.committed_per_cycle::stdev     1.831253                       # Number of insts commited each cycle
system.switch_cpus.commit.committed_per_cycle::underflows            0      0.00%      0.00% # Number of insts commited each cycle
system.switch_cpus.commit.committed_per_cycle::0      4159392     74.49%     74.49% # Number of insts commited each cycle
system.switch_cpus.commit.committed_per_cycle::1       659115     11.80%     86.29% # Number of insts commited each cycle
system.switch_cpus.commit.committed_per_cycle::2       243153      4.35%     90.65% # Number of insts commited each cycle
system.switch_cpus.commit.committed_per_cycle::3        98445      1.76%     92.41% # Number of insts commited each cycle
system.switch_cpus.commit.committed_per_cycle::4        93997      1.68%     94.10% # Number of insts commited each cycle
system.switch_cpus.commit.committed_per_cycle::5        44719      0.80%     94.90% # Number of insts commited each cycle
system.switch_cpus.commit.committed_per_cycle::6        36164      0.65%     95.54% # Number of insts commited each cycle
system.switch_cpus.commit.committed_per_cycle::7        30209      0.54%     96.09% # Number of insts commited each cycle
system.switch_cpus.commit.committed_per_cycle::8       218572      3.91%    100.00% # Number of insts commited each cycle
system.switch_cpus.commit.committed_per_cycle::overflows            0      0.00%    100.00% # Number of insts commited each cycle
system.switch_cpus.commit.committed_per_cycle::min_value            0                       # Number of insts commited each cycle
system.switch_cpus.commit.committed_per_cycle::max_value            8                       # Number of insts commited each cycle
system.switch_cpus.commit.committed_per_cycle::total      5583766                       # Number of insts commited each cycle
system.switch_cpus.commit.committedInsts      4217362                       # Number of instructions committed
system.switch_cpus.commit.committedOps        4217362                       # Number of ops (including micro ops) committed
system.switch_cpus.commit.swp_count                 0                       # Number of s/w prefetches committed
system.switch_cpus.commit.refs                1166940                       # Number of memory references committed
system.switch_cpus.commit.loads                733397                       # Number of loads committed
system.switch_cpus.commit.membars               31937                       # Number of memory barriers committed
system.switch_cpus.commit.branches             579671                       # Number of branches committed
system.switch_cpus.commit.fp_insts              15736                       # Number of committed floating point instructions.
system.switch_cpus.commit.int_insts           4066683                       # Number of committed integer instructions.
system.switch_cpus.commit.function_calls        65993                       # Number of function calls committed.
system.switch_cpus.commit.op_class_0::No_OpClass        44711      1.06%      1.06% # Class of committed instruction
system.switch_cpus.commit.op_class_0::IntAlu      2865527     67.95%     69.01% # Class of committed instruction
system.switch_cpus.commit.op_class_0::IntMult        11039      0.26%     69.27% # Class of committed instruction
system.switch_cpus.commit.op_class_0::IntDiv            0      0.00%     69.27% # Class of committed instruction
system.switch_cpus.commit.op_class_0::FloatAdd         5073      0.12%     69.39% # Class of committed instruction
system.switch_cpus.commit.op_class_0::FloatCmp            1      0.00%     69.39% # Class of committed instruction
system.switch_cpus.commit.op_class_0::FloatCvt         2264      0.05%     69.44% # Class of committed instruction
system.switch_cpus.commit.op_class_0::FloatMult            1      0.00%     69.44% # Class of committed instruction
system.switch_cpus.commit.op_class_0::FloatDiv          999      0.02%     69.47% # Class of committed instruction
system.switch_cpus.commit.op_class_0::FloatSqrt            0      0.00%     69.47% # Class of committed instruction
system.switch_cpus.commit.op_class_0::SimdAdd            0      0.00%     69.47% # Class of committed instruction
system.switch_cpus.commit.op_class_0::SimdAddAcc            0      0.00%     69.47% # Class of committed instruction
system.switch_cpus.commit.op_class_0::SimdAlu            0      0.00%     69.47% # Class of committed instruction
system.switch_cpus.commit.op_class_0::SimdCmp            0      0.00%     69.47% # Class of committed instruction
system.switch_cpus.commit.op_class_0::SimdCvt            0      0.00%     69.47% # Class of committed instruction
system.switch_cpus.commit.op_class_0::SimdMisc            0      0.00%     69.47% # Class of committed instruction
system.switch_cpus.commit.op_class_0::SimdMult            0      0.00%     69.47% # Class of committed instruction
system.switch_cpus.commit.op_class_0::SimdMultAcc            0      0.00%     69.47% # Class of committed instruction
system.switch_cpus.commit.op_class_0::SimdShift            0      0.00%     69.47% # Class of committed instruction
system.switch_cpus.commit.op_class_0::SimdShiftAcc            0      0.00%     69.47% # Class of committed instruction
system.switch_cpus.commit.op_class_0::SimdSqrt            0      0.00%     69.47% # Class of committed instruction
system.switch_cpus.commit.op_class_0::SimdFloatAdd            0      0.00%     69.47% # Class of committed instruction
system.switch_cpus.commit.op_class_0::SimdFloatAlu            0      0.00%     69.47% # Class of committed instruction
system.switch_cpus.commit.op_class_0::SimdFloatCmp            0      0.00%     69.47% # Class of committed instruction
system.switch_cpus.commit.op_class_0::SimdFloatCvt            0      0.00%     69.47% # Class of committed instruction
system.switch_cpus.commit.op_class_0::SimdFloatDiv            0      0.00%     69.47% # Class of committed instruction
system.switch_cpus.commit.op_class_0::SimdFloatMisc            0      0.00%     69.47% # Class of committed instruction
system.switch_cpus.commit.op_class_0::SimdFloatMult            0      0.00%     69.47% # Class of committed instruction
system.switch_cpus.commit.op_class_0::SimdFloatMultAcc            0      0.00%     69.47% # Class of committed instruction
system.switch_cpus.commit.op_class_0::SimdFloatSqrt            0      0.00%     69.47% # Class of committed instruction
system.switch_cpus.commit.op_class_0::MemRead       765334     18.15%     87.61% # Class of committed instruction
system.switch_cpus.commit.op_class_0::MemWrite       433913     10.29%     97.90% # Class of committed instruction
system.switch_cpus.commit.op_class_0::IprAccess        88500      2.10%    100.00% # Class of committed instruction
system.switch_cpus.commit.op_class_0::InstPrefetch            0      0.00%    100.00% # Class of committed instruction
system.switch_cpus.commit.op_class_0::total      4217362                       # Class of committed instruction
system.switch_cpus.commit.bw_lim_events        218572                       # number cycles where commit BW limit reached
system.switch_cpus.rob.rob_reads             10478823                       # The number of ROB reads
system.switch_cpus.rob.rob_writes            10449262                       # The number of ROB writes
system.switch_cpus.timesIdled                   10828                       # Number of times that the entire CPU went into an idle state and unscheduled itself
system.switch_cpus.idleCycles                  548653                       # Total number of cycles that the CPU has spent unscheduled due to idling
system.switch_cpus.committedInsts             4174651                       # Number of Instructions Simulated
system.switch_cpus.committedOps               4174651                       # Number of Ops (including micro ops) Simulated
system.switch_cpus.cpi                       1.505239                       # CPI: Cycles Per Instruction
system.switch_cpus.cpi_total                 1.505239                       # CPI: Total CPI of All Threads
system.switch_cpus.ipc                       0.664346                       # IPC: Instructions Per Cycle
system.switch_cpus.ipc_total                 0.664346                       # IPC: Total IPC of All Threads
system.switch_cpus.int_regfile_reads          6187943                       # number of integer regfile reads
system.switch_cpus.int_regfile_writes         3499617                       # number of integer regfile writes
system.switch_cpus.fp_regfile_reads             10694                       # number of floating regfile reads
system.switch_cpus.fp_regfile_writes            10319                       # number of floating regfile writes
system.switch_cpus.misc_regfile_reads          156632                       # number of misc regfile reads
system.switch_cpus.misc_regfile_writes          86180                       # number of misc regfile writes
system.tol2bus.trans_dist::ReadReq              43756                       # Transaction distribution
system.tol2bus.trans_dist::ReadResp             43756                       # Transaction distribution
system.tol2bus.trans_dist::WriteReq               135                       # Transaction distribution
system.tol2bus.trans_dist::WriteResp              135                       # Transaction distribution
system.tol2bus.trans_dist::Writeback            26380                       # Transaction distribution
system.tol2bus.trans_dist::UpgradeReq               2                       # Transaction distribution
system.tol2bus.trans_dist::SCUpgradeReq             1                       # Transaction distribution
system.tol2bus.trans_dist::UpgradeResp              3                       # Transaction distribution
system.tol2bus.trans_dist::ReadExReq            14561                       # Transaction distribution
system.tol2bus.trans_dist::ReadExResp           14561                       # Transaction distribution
system.tol2bus.pkt_count_system.cpu.icache.mem_side::system.l2.cpu_side        38265                       # Packet count per connected master and slave (bytes)
system.tol2bus.pkt_count_system.cpu.dcache.mem_side::system.l2.cpu_side       105022                       # Packet count per connected master and slave (bytes)
system.tol2bus.pkt_count::total                143287                       # Packet count per connected master and slave (bytes)
system.tol2bus.pkt_size_system.cpu.icache.mem_side::system.l2.cpu_side      1224384                       # Cumulative packet size per connected master and slave (bytes)
system.tol2bus.pkt_size_system.cpu.dcache.mem_side::system.l2.cpu_side      4177400                       # Cumulative packet size per connected master and slave (bytes)
system.tol2bus.pkt_size::total                5401784                       # Cumulative packet size per connected master and slave (bytes)
system.tol2bus.snoops                               3                       # Total snoops (count)
system.tol2bus.snoop_fanout::samples            84835                       # Request fanout histogram
system.tol2bus.snoop_fanout::mean                   1                       # Request fanout histogram
system.tol2bus.snoop_fanout::stdev                  0                       # Request fanout histogram
system.tol2bus.snoop_fanout::underflows             0      0.00%      0.00% # Request fanout histogram
system.tol2bus.snoop_fanout::0                      0      0.00%      0.00% # Request fanout histogram
system.tol2bus.snoop_fanout::1                  84835    100.00%    100.00% # Request fanout histogram
system.tol2bus.snoop_fanout::2                      0      0.00%    100.00% # Request fanout histogram
system.tol2bus.snoop_fanout::overflows              0      0.00%    100.00% # Request fanout histogram
system.tol2bus.snoop_fanout::min_value              1                       # Request fanout histogram
system.tol2bus.snoop_fanout::max_value              1                       # Request fanout histogram
system.tol2bus.snoop_fanout::total              84835                       # Request fanout histogram
system.tol2bus.reqLayer0.occupancy           68865000                       # Layer occupancy (ticks)
system.tol2bus.reqLayer0.utilization              2.2                       # Layer utilization (%)
system.tol2bus.respLayer0.occupancy          29747212                       # Layer occupancy (ticks)
system.tol2bus.respLayer0.utilization             0.9                       # Layer utilization (%)
system.tol2bus.respLayer1.occupancy          61688748                       # Layer occupancy (ticks)
system.tol2bus.respLayer1.utilization             2.0                       # Layer utilization (%)
system.tsunami.ethernet.descDMAReads                0                       # Number of descriptors the device read w/ DMA
system.tsunami.ethernet.descDMAWrites               0                       # Number of descriptors the device wrote w/ DMA
system.tsunami.ethernet.descDmaReadBytes            0                       # number of descriptor bytes read w/ DMA
system.tsunami.ethernet.descDmaWriteBytes            0                       # number of descriptor bytes write w/ DMA
system.tsunami.ethernet.postedSwi                   0                       # number of software interrupts posted to CPU
system.tsunami.ethernet.coalescedSwi              nan                       # average number of Swi's coalesced into each post
system.tsunami.ethernet.totalSwi                    0                       # total number of Swi written to ISR
system.tsunami.ethernet.postedRxIdle                0                       # number of rxIdle interrupts posted to CPU
system.tsunami.ethernet.coalescedRxIdle           nan                       # average number of RxIdle's coalesced into each post
system.tsunami.ethernet.totalRxIdle                 0                       # total number of RxIdle written to ISR
system.tsunami.ethernet.postedRxOk                  0                       # number of RxOk interrupts posted to CPU
system.tsunami.ethernet.coalescedRxOk             nan                       # average number of RxOk's coalesced into each post
system.tsunami.ethernet.totalRxOk                   0                       # total number of RxOk written to ISR
system.tsunami.ethernet.postedRxDesc                0                       # number of RxDesc interrupts posted to CPU
system.tsunami.ethernet.coalescedRxDesc           nan                       # average number of RxDesc's coalesced into each post
system.tsunami.ethernet.totalRxDesc                 0                       # total number of RxDesc written to ISR
system.tsunami.ethernet.postedTxOk                  0                       # number of TxOk interrupts posted to CPU
system.tsunami.ethernet.coalescedTxOk             nan                       # average number of TxOk's coalesced into each post
system.tsunami.ethernet.totalTxOk                   0                       # total number of TxOk written to ISR
system.tsunami.ethernet.postedTxIdle                0                       # number of TxIdle interrupts posted to CPU
system.tsunami.ethernet.coalescedTxIdle           nan                       # average number of TxIdle's coalesced into each post
system.tsunami.ethernet.totalTxIdle                 0                       # total number of TxIdle written to ISR
system.tsunami.ethernet.postedTxDesc                0                       # number of TxDesc interrupts posted to CPU
system.tsunami.ethernet.coalescedTxDesc           nan                       # average number of TxDesc's coalesced into each post
system.tsunami.ethernet.totalTxDesc                 0                       # total number of TxDesc written to ISR
system.tsunami.ethernet.postedRxOrn                 0                       # number of RxOrn posted to CPU
system.tsunami.ethernet.coalescedRxOrn            nan                       # average number of RxOrn's coalesced into each post
system.tsunami.ethernet.totalRxOrn                  0                       # total number of RxOrn written to ISR
system.tsunami.ethernet.coalescedTotal            nan                       # average number of interrupts coalesced into each post
system.tsunami.ethernet.postedInterrupts            0                       # number of posts to CPU
system.tsunami.ethernet.droppedPackets              0                       # number of packets dropped
system.switch_cpus.kern.inst.arm                    0                       # number of arm instructions executed
system.switch_cpus.kern.inst.quiesce                0                       # number of quiesce instructions executed
system.switch_cpus.kern.inst.hwrei                  0                       # number of hwrei instructions executed
system.switch_cpus.kern.mode_switch::kernel            0                       # number of protection mode switches
system.switch_cpus.kern.mode_switch::user            0                       # number of protection mode switches
system.switch_cpus.kern.mode_switch::idle            0                       # number of protection mode switches
system.switch_cpus.kern.mode_good::kernel            0                      
system.switch_cpus.kern.mode_good::user             0                      
system.switch_cpus.kern.mode_good::idle             0                      
system.switch_cpus.kern.mode_switch_good::kernel          nan                       # fraction of useful protection mode switches
system.switch_cpus.kern.mode_switch_good::user          nan                       # fraction of useful protection mode switches
system.switch_cpus.kern.mode_switch_good::idle          nan                       # fraction of useful protection mode switches
system.switch_cpus.kern.mode_switch_good::total          nan                       # fraction of useful protection mode switches
system.switch_cpus.kern.mode_ticks::kernel            0                       # number of ticks spent at the given mode
system.switch_cpus.kern.mode_ticks::user            0                       # number of ticks spent at the given mode
system.switch_cpus.kern.mode_ticks::idle            0                       # number of ticks spent at the given mode
system.switch_cpus.kern.swap_context                0                       # number of times the context was actually changed

---------- End Simulation Statistics   ----------
