
---------- Begin Simulation Statistics ----------
sim_seconds                                  0.000798                       # Number of seconds simulated
sim_ticks                                   797760000                       # Number of ticks simulated
final_tick                               2255237970500                       # Number of ticks from beginning of simulation (restored from checkpoints and never reset)
sim_freq                                 1000000000000                       # Frequency of simulated ticks
host_inst_rate                               36997425                       # Simulator instruction rate (inst/s)
host_op_rate                                 36997324                       # Simulator op (including micro ops) rate (op/s)
host_tick_rate                              301221383                       # Simulator tick rate (ticks/s)
host_mem_usage                                 728972                       # Number of bytes of host memory used
host_seconds                                     2.65                       # Real time elapsed on the host
sim_insts                                    97984118                       # Number of instructions simulated
sim_ops                                      97984118                       # Number of ops (including micro ops) simulated
system.voltage_domain.voltage                       1                       # Voltage in Volts
system.clk_domain.clock                          1000                       # Clock period in ticks
system.mem_ctrls.bytes_read::switch_cpus.inst       313984                       # Number of bytes read from this memory
system.mem_ctrls.bytes_read::switch_cpus.data       177984                       # Number of bytes read from this memory
system.mem_ctrls.bytes_read::total             491968                       # Number of bytes read from this memory
system.mem_ctrls.bytes_inst_read::switch_cpus.inst       313984                       # Number of instructions bytes read from this memory
system.mem_ctrls.bytes_inst_read::total        313984                       # Number of instructions bytes read from this memory
system.mem_ctrls.bytes_written::writebacks        62848                       # Number of bytes written to this memory
system.mem_ctrls.bytes_written::total           62848                       # Number of bytes written to this memory
system.mem_ctrls.num_reads::switch_cpus.inst         4906                       # Number of read requests responded to by this memory
system.mem_ctrls.num_reads::switch_cpus.data         2781                       # Number of read requests responded to by this memory
system.mem_ctrls.num_reads::total                7687                       # Number of read requests responded to by this memory
system.mem_ctrls.num_writes::writebacks           982                       # Number of write requests responded to by this memory
system.mem_ctrls.num_writes::total                982                       # Number of write requests responded to by this memory
system.mem_ctrls.bw_read::switch_cpus.inst    393582030                       # Total read bandwidth from this memory (bytes/s)
system.mem_ctrls.bw_read::switch_cpus.data    223104693                       # Total read bandwidth from this memory (bytes/s)
system.mem_ctrls.bw_read::total             616686723                       # Total read bandwidth from this memory (bytes/s)
system.mem_ctrls.bw_inst_read::switch_cpus.inst    393582030                       # Instruction read bandwidth from this memory (bytes/s)
system.mem_ctrls.bw_inst_read::total        393582030                       # Instruction read bandwidth from this memory (bytes/s)
system.mem_ctrls.bw_write::writebacks        78780586                       # Write bandwidth from this memory (bytes/s)
system.mem_ctrls.bw_write::total             78780586                       # Write bandwidth from this memory (bytes/s)
system.mem_ctrls.bw_total::writebacks        78780586                       # Total bandwidth to/from this memory (bytes/s)
system.mem_ctrls.bw_total::switch_cpus.inst    393582030                       # Total bandwidth to/from this memory (bytes/s)
system.mem_ctrls.bw_total::switch_cpus.data    223104693                       # Total bandwidth to/from this memory (bytes/s)
system.mem_ctrls.bw_total::total            695467308                       # Total bandwidth to/from this memory (bytes/s)
system.mem_ctrls.readReqs                        7688                       # Number of read requests accepted
system.mem_ctrls.writeReqs                        982                       # Number of write requests accepted
system.mem_ctrls.readBursts                      7688                       # Number of DRAM read bursts, including those serviced by the write queue
system.mem_ctrls.writeBursts                      982                       # Number of DRAM write bursts, including those merged in the write queue
system.mem_ctrls.bytesReadDRAM                 488832                       # Total number of bytes read from DRAM
system.mem_ctrls.bytesReadWrQ                    3200                       # Total number of bytes read from write queue
system.mem_ctrls.bytesWritten                   61312                       # Total number of bytes written to DRAM
system.mem_ctrls.bytesReadSys                  492032                       # Total read bytes from the system interface side
system.mem_ctrls.bytesWrittenSys                62848                       # Total written bytes from the system interface side
system.mem_ctrls.servicedByWrQ                     50                       # Number of DRAM read bursts serviced by the write queue
system.mem_ctrls.mergedWrBursts                     1                       # Number of DRAM write bursts merged with an existing one
system.mem_ctrls.neitherReadNorWriteReqs            5                       # Number of requests that are neither read nor write
system.mem_ctrls.perBankRdBursts::0               858                       # Per bank write bursts
system.mem_ctrls.perBankRdBursts::1               358                       # Per bank write bursts
system.mem_ctrls.perBankRdBursts::2               387                       # Per bank write bursts
system.mem_ctrls.perBankRdBursts::3               266                       # Per bank write bursts
system.mem_ctrls.perBankRdBursts::4               338                       # Per bank write bursts
system.mem_ctrls.perBankRdBursts::5               374                       # Per bank write bursts
system.mem_ctrls.perBankRdBursts::6               353                       # Per bank write bursts
system.mem_ctrls.perBankRdBursts::7               449                       # Per bank write bursts
system.mem_ctrls.perBankRdBursts::8               667                       # Per bank write bursts
system.mem_ctrls.perBankRdBursts::9               432                       # Per bank write bursts
system.mem_ctrls.perBankRdBursts::10              551                       # Per bank write bursts
system.mem_ctrls.perBankRdBursts::11              651                       # Per bank write bursts
system.mem_ctrls.perBankRdBursts::12              603                       # Per bank write bursts
system.mem_ctrls.perBankRdBursts::13              757                       # Per bank write bursts
system.mem_ctrls.perBankRdBursts::14              270                       # Per bank write bursts
system.mem_ctrls.perBankRdBursts::15              324                       # Per bank write bursts
system.mem_ctrls.perBankWrBursts::0               140                       # Per bank write bursts
system.mem_ctrls.perBankWrBursts::1                43                       # Per bank write bursts
system.mem_ctrls.perBankWrBursts::2                31                       # Per bank write bursts
system.mem_ctrls.perBankWrBursts::3                52                       # Per bank write bursts
system.mem_ctrls.perBankWrBursts::4                85                       # Per bank write bursts
system.mem_ctrls.perBankWrBursts::5                80                       # Per bank write bursts
system.mem_ctrls.perBankWrBursts::6                99                       # Per bank write bursts
system.mem_ctrls.perBankWrBursts::7                35                       # Per bank write bursts
system.mem_ctrls.perBankWrBursts::8                53                       # Per bank write bursts
system.mem_ctrls.perBankWrBursts::9                28                       # Per bank write bursts
system.mem_ctrls.perBankWrBursts::10               23                       # Per bank write bursts
system.mem_ctrls.perBankWrBursts::11               80                       # Per bank write bursts
system.mem_ctrls.perBankWrBursts::12               47                       # Per bank write bursts
system.mem_ctrls.perBankWrBursts::13               79                       # Per bank write bursts
system.mem_ctrls.perBankWrBursts::14               48                       # Per bank write bursts
system.mem_ctrls.perBankWrBursts::15               35                       # Per bank write bursts
system.mem_ctrls.numRdRetry                         0                       # Number of times read queue was full causing retry
system.mem_ctrls.numWrRetry                         0                       # Number of times write queue was full causing retry
system.mem_ctrls.totGap                     797716000                       # Total gap between requests
system.mem_ctrls.readPktSize::0                     0                       # Read request sizes (log2)
system.mem_ctrls.readPktSize::1                     0                       # Read request sizes (log2)
system.mem_ctrls.readPktSize::2                     0                       # Read request sizes (log2)
system.mem_ctrls.readPktSize::3                     0                       # Read request sizes (log2)
system.mem_ctrls.readPktSize::4                     0                       # Read request sizes (log2)
system.mem_ctrls.readPktSize::5                     0                       # Read request sizes (log2)
system.mem_ctrls.readPktSize::6                  7688                       # Read request sizes (log2)
system.mem_ctrls.writePktSize::0                    0                       # Write request sizes (log2)
system.mem_ctrls.writePktSize::1                    0                       # Write request sizes (log2)
system.mem_ctrls.writePktSize::2                    0                       # Write request sizes (log2)
system.mem_ctrls.writePktSize::3                    0                       # Write request sizes (log2)
system.mem_ctrls.writePktSize::4                    0                       # Write request sizes (log2)
system.mem_ctrls.writePktSize::5                    0                       # Write request sizes (log2)
system.mem_ctrls.writePktSize::6                  982                       # Write request sizes (log2)
system.mem_ctrls.rdQLenPdf::0                    5437                       # What read queue length does an incoming req see
system.mem_ctrls.rdQLenPdf::1                    1722                       # What read queue length does an incoming req see
system.mem_ctrls.rdQLenPdf::2                     377                       # What read queue length does an incoming req see
system.mem_ctrls.rdQLenPdf::3                      93                       # What read queue length does an incoming req see
system.mem_ctrls.rdQLenPdf::4                       7                       # What read queue length does an incoming req see
system.mem_ctrls.rdQLenPdf::5                       2                       # What read queue length does an incoming req see
system.mem_ctrls.rdQLenPdf::6                       0                       # What read queue length does an incoming req see
system.mem_ctrls.rdQLenPdf::7                       0                       # What read queue length does an incoming req see
system.mem_ctrls.rdQLenPdf::8                       0                       # What read queue length does an incoming req see
system.mem_ctrls.rdQLenPdf::9                       0                       # What read queue length does an incoming req see
system.mem_ctrls.rdQLenPdf::10                      0                       # What read queue length does an incoming req see
system.mem_ctrls.rdQLenPdf::11                      0                       # What read queue length does an incoming req see
system.mem_ctrls.rdQLenPdf::12                      0                       # What read queue length does an incoming req see
system.mem_ctrls.rdQLenPdf::13                      0                       # What read queue length does an incoming req see
system.mem_ctrls.rdQLenPdf::14                      0                       # What read queue length does an incoming req see
system.mem_ctrls.rdQLenPdf::15                      0                       # What read queue length does an incoming req see
system.mem_ctrls.rdQLenPdf::16                      0                       # What read queue length does an incoming req see
system.mem_ctrls.rdQLenPdf::17                      0                       # What read queue length does an incoming req see
system.mem_ctrls.rdQLenPdf::18                      0                       # What read queue length does an incoming req see
system.mem_ctrls.rdQLenPdf::19                      0                       # What read queue length does an incoming req see
system.mem_ctrls.rdQLenPdf::20                      0                       # What read queue length does an incoming req see
system.mem_ctrls.rdQLenPdf::21                      0                       # What read queue length does an incoming req see
system.mem_ctrls.rdQLenPdf::22                      0                       # What read queue length does an incoming req see
system.mem_ctrls.rdQLenPdf::23                      0                       # What read queue length does an incoming req see
system.mem_ctrls.rdQLenPdf::24                      0                       # What read queue length does an incoming req see
system.mem_ctrls.rdQLenPdf::25                      0                       # What read queue length does an incoming req see
system.mem_ctrls.rdQLenPdf::26                      0                       # What read queue length does an incoming req see
system.mem_ctrls.rdQLenPdf::27                      0                       # What read queue length does an incoming req see
system.mem_ctrls.rdQLenPdf::28                      0                       # What read queue length does an incoming req see
system.mem_ctrls.rdQLenPdf::29                      0                       # What read queue length does an incoming req see
system.mem_ctrls.rdQLenPdf::30                      0                       # What read queue length does an incoming req see
system.mem_ctrls.rdQLenPdf::31                      0                       # What read queue length does an incoming req see
system.mem_ctrls.wrQLenPdf::0                       1                       # What write queue length does an incoming req see
system.mem_ctrls.wrQLenPdf::1                       1                       # What write queue length does an incoming req see
system.mem_ctrls.wrQLenPdf::2                       1                       # What write queue length does an incoming req see
system.mem_ctrls.wrQLenPdf::3                       1                       # What write queue length does an incoming req see
system.mem_ctrls.wrQLenPdf::4                       1                       # What write queue length does an incoming req see
system.mem_ctrls.wrQLenPdf::5                       1                       # What write queue length does an incoming req see
system.mem_ctrls.wrQLenPdf::6                       1                       # What write queue length does an incoming req see
system.mem_ctrls.wrQLenPdf::7                       1                       # What write queue length does an incoming req see
system.mem_ctrls.wrQLenPdf::8                       1                       # What write queue length does an incoming req see
system.mem_ctrls.wrQLenPdf::9                       1                       # What write queue length does an incoming req see
system.mem_ctrls.wrQLenPdf::10                      1                       # What write queue length does an incoming req see
system.mem_ctrls.wrQLenPdf::11                      1                       # What write queue length does an incoming req see
system.mem_ctrls.wrQLenPdf::12                      1                       # What write queue length does an incoming req see
system.mem_ctrls.wrQLenPdf::13                      1                       # What write queue length does an incoming req see
system.mem_ctrls.wrQLenPdf::14                      1                       # What write queue length does an incoming req see
system.mem_ctrls.wrQLenPdf::15                     20                       # What write queue length does an incoming req see
system.mem_ctrls.wrQLenPdf::16                     22                       # What write queue length does an incoming req see
system.mem_ctrls.wrQLenPdf::17                     52                       # What write queue length does an incoming req see
system.mem_ctrls.wrQLenPdf::18                     56                       # What write queue length does an incoming req see
system.mem_ctrls.wrQLenPdf::19                     59                       # What write queue length does an incoming req see
system.mem_ctrls.wrQLenPdf::20                     59                       # What write queue length does an incoming req see
system.mem_ctrls.wrQLenPdf::21                     59                       # What write queue length does an incoming req see
system.mem_ctrls.wrQLenPdf::22                     58                       # What write queue length does an incoming req see
system.mem_ctrls.wrQLenPdf::23                     58                       # What write queue length does an incoming req see
system.mem_ctrls.wrQLenPdf::24                     59                       # What write queue length does an incoming req see
system.mem_ctrls.wrQLenPdf::25                     58                       # What write queue length does an incoming req see
system.mem_ctrls.wrQLenPdf::26                     61                       # What write queue length does an incoming req see
system.mem_ctrls.wrQLenPdf::27                     58                       # What write queue length does an incoming req see
system.mem_ctrls.wrQLenPdf::28                     58                       # What write queue length does an incoming req see
system.mem_ctrls.wrQLenPdf::29                     58                       # What write queue length does an incoming req see
system.mem_ctrls.wrQLenPdf::30                     57                       # What write queue length does an incoming req see
system.mem_ctrls.wrQLenPdf::31                     57                       # What write queue length does an incoming req see
system.mem_ctrls.wrQLenPdf::32                     57                       # What write queue length does an incoming req see
system.mem_ctrls.wrQLenPdf::33                      0                       # What write queue length does an incoming req see
system.mem_ctrls.wrQLenPdf::34                      0                       # What write queue length does an incoming req see
system.mem_ctrls.wrQLenPdf::35                      0                       # What write queue length does an incoming req see
system.mem_ctrls.wrQLenPdf::36                      0                       # What write queue length does an incoming req see
system.mem_ctrls.wrQLenPdf::37                      0                       # What write queue length does an incoming req see
system.mem_ctrls.wrQLenPdf::38                      0                       # What write queue length does an incoming req see
system.mem_ctrls.wrQLenPdf::39                      0                       # What write queue length does an incoming req see
system.mem_ctrls.wrQLenPdf::40                      0                       # What write queue length does an incoming req see
system.mem_ctrls.wrQLenPdf::41                      0                       # What write queue length does an incoming req see
system.mem_ctrls.wrQLenPdf::42                      0                       # What write queue length does an incoming req see
system.mem_ctrls.wrQLenPdf::43                      0                       # What write queue length does an incoming req see
system.mem_ctrls.wrQLenPdf::44                      0                       # What write queue length does an incoming req see
system.mem_ctrls.wrQLenPdf::45                      0                       # What write queue length does an incoming req see
system.mem_ctrls.wrQLenPdf::46                      0                       # What write queue length does an incoming req see
system.mem_ctrls.wrQLenPdf::47                      0                       # What write queue length does an incoming req see
system.mem_ctrls.wrQLenPdf::48                      0                       # What write queue length does an incoming req see
system.mem_ctrls.wrQLenPdf::49                      0                       # What write queue length does an incoming req see
system.mem_ctrls.wrQLenPdf::50                      0                       # What write queue length does an incoming req see
system.mem_ctrls.wrQLenPdf::51                      0                       # What write queue length does an incoming req see
system.mem_ctrls.wrQLenPdf::52                      0                       # What write queue length does an incoming req see
system.mem_ctrls.wrQLenPdf::53                      0                       # What write queue length does an incoming req see
system.mem_ctrls.wrQLenPdf::54                      0                       # What write queue length does an incoming req see
system.mem_ctrls.wrQLenPdf::55                      0                       # What write queue length does an incoming req see
system.mem_ctrls.wrQLenPdf::56                      0                       # What write queue length does an incoming req see
system.mem_ctrls.wrQLenPdf::57                      0                       # What write queue length does an incoming req see
system.mem_ctrls.wrQLenPdf::58                      0                       # What write queue length does an incoming req see
system.mem_ctrls.wrQLenPdf::59                      0                       # What write queue length does an incoming req see
system.mem_ctrls.wrQLenPdf::60                      0                       # What write queue length does an incoming req see
system.mem_ctrls.wrQLenPdf::61                      0                       # What write queue length does an incoming req see
system.mem_ctrls.wrQLenPdf::62                      0                       # What write queue length does an incoming req see
system.mem_ctrls.wrQLenPdf::63                      0                       # What write queue length does an incoming req see
system.mem_ctrls.bytesPerActivate::samples         2921                       # Bytes accessed per row activation
system.mem_ctrls.bytesPerActivate::mean    187.683670                       # Bytes accessed per row activation
system.mem_ctrls.bytesPerActivate::gmean   126.501296                       # Bytes accessed per row activation
system.mem_ctrls.bytesPerActivate::stdev   213.298052                       # Bytes accessed per row activation
system.mem_ctrls.bytesPerActivate::0-127         1402     48.00%     48.00% # Bytes accessed per row activation
system.mem_ctrls.bytesPerActivate::128-255          859     29.41%     77.40% # Bytes accessed per row activation
system.mem_ctrls.bytesPerActivate::256-383          272      9.31%     86.72% # Bytes accessed per row activation
system.mem_ctrls.bytesPerActivate::384-511          138      4.72%     91.44% # Bytes accessed per row activation
system.mem_ctrls.bytesPerActivate::512-639           77      2.64%     94.08% # Bytes accessed per row activation
system.mem_ctrls.bytesPerActivate::640-767           35      1.20%     95.28% # Bytes accessed per row activation
system.mem_ctrls.bytesPerActivate::768-895           34      1.16%     96.44% # Bytes accessed per row activation
system.mem_ctrls.bytesPerActivate::896-1023           24      0.82%     97.26% # Bytes accessed per row activation
system.mem_ctrls.bytesPerActivate::1024-1151           80      2.74%    100.00% # Bytes accessed per row activation
system.mem_ctrls.bytesPerActivate::total         2921                       # Bytes accessed per row activation
system.mem_ctrls.rdPerTurnAround::samples           57                       # Reads before turning the bus around for writes
system.mem_ctrls.rdPerTurnAround::mean     133.175439                       # Reads before turning the bus around for writes
system.mem_ctrls.rdPerTurnAround::gmean    120.307793                       # Reads before turning the bus around for writes
system.mem_ctrls.rdPerTurnAround::stdev     57.335206                       # Reads before turning the bus around for writes
system.mem_ctrls.rdPerTurnAround::32-47             3      5.26%      5.26% # Reads before turning the bus around for writes
system.mem_ctrls.rdPerTurnAround::48-63             4      7.02%     12.28% # Reads before turning the bus around for writes
system.mem_ctrls.rdPerTurnAround::64-79             5      8.77%     21.05% # Reads before turning the bus around for writes
system.mem_ctrls.rdPerTurnAround::80-95             1      1.75%     22.81% # Reads before turning the bus around for writes
system.mem_ctrls.rdPerTurnAround::96-111            6     10.53%     33.33% # Reads before turning the bus around for writes
system.mem_ctrls.rdPerTurnAround::112-127            7     12.28%     45.61% # Reads before turning the bus around for writes
system.mem_ctrls.rdPerTurnAround::128-143            8     14.04%     59.65% # Reads before turning the bus around for writes
system.mem_ctrls.rdPerTurnAround::144-159            8     14.04%     73.68% # Reads before turning the bus around for writes
system.mem_ctrls.rdPerTurnAround::160-175            5      8.77%     82.46% # Reads before turning the bus around for writes
system.mem_ctrls.rdPerTurnAround::176-191            3      5.26%     87.72% # Reads before turning the bus around for writes
system.mem_ctrls.rdPerTurnAround::192-207            2      3.51%     91.23% # Reads before turning the bus around for writes
system.mem_ctrls.rdPerTurnAround::208-223            1      1.75%     92.98% # Reads before turning the bus around for writes
system.mem_ctrls.rdPerTurnAround::240-255            2      3.51%     96.49% # Reads before turning the bus around for writes
system.mem_ctrls.rdPerTurnAround::272-287            2      3.51%    100.00% # Reads before turning the bus around for writes
system.mem_ctrls.rdPerTurnAround::total            57                       # Reads before turning the bus around for writes
system.mem_ctrls.wrPerTurnAround::samples           57                       # Writes before turning the bus around for reads
system.mem_ctrls.wrPerTurnAround::mean      16.807018                       # Writes before turning the bus around for reads
system.mem_ctrls.wrPerTurnAround::gmean     16.772398                       # Writes before turning the bus around for reads
system.mem_ctrls.wrPerTurnAround::stdev      1.109031                       # Writes before turning the bus around for reads
system.mem_ctrls.wrPerTurnAround::16               35     61.40%     61.40% # Writes before turning the bus around for reads
system.mem_ctrls.wrPerTurnAround::17                3      5.26%     66.67% # Writes before turning the bus around for reads
system.mem_ctrls.wrPerTurnAround::18               15     26.32%     92.98% # Writes before turning the bus around for reads
system.mem_ctrls.wrPerTurnAround::19                3      5.26%     98.25% # Writes before turning the bus around for reads
system.mem_ctrls.wrPerTurnAround::20                1      1.75%    100.00% # Writes before turning the bus around for reads
system.mem_ctrls.wrPerTurnAround::total            57                       # Writes before turning the bus around for reads
system.mem_ctrls.totQLat                     92656000                       # Total ticks spent queuing
system.mem_ctrls.totMemAccLat               235868500                       # Total ticks spent from burst creation until serviced by the DRAM
system.mem_ctrls.totBusLat                   38190000                       # Total ticks spent in databus transfers
system.mem_ctrls.avgQLat                     12130.92                       # Average queueing delay per DRAM burst
system.mem_ctrls.avgBusLat                    5000.00                       # Average bus latency per DRAM burst
system.mem_ctrls.avgMemAccLat                30880.92                       # Average memory access latency per DRAM burst
system.mem_ctrls.avgRdBW                       612.76                       # Average DRAM read bandwidth in MiByte/s
system.mem_ctrls.avgWrBW                        76.86                       # Average achieved write bandwidth in MiByte/s
system.mem_ctrls.avgRdBWSys                    616.77                       # Average system read bandwidth in MiByte/s
system.mem_ctrls.avgWrBWSys                     78.78                       # Average system write bandwidth in MiByte/s
system.mem_ctrls.peakBW                      12800.00                       # Theoretical peak bandwidth in MiByte/s
system.mem_ctrls.busUtil                         5.39                       # Data bus utilization in percentage
system.mem_ctrls.busUtilRead                     4.79                       # Data bus utilization in percentage for reads
system.mem_ctrls.busUtilWrite                    0.60                       # Data bus utilization in percentage for writes
system.mem_ctrls.avgRdQLen                       1.29                       # Average read queue length when enqueuing
system.mem_ctrls.avgWrQLen                      24.72                       # Average write queue length when enqueuing
system.mem_ctrls.readRowHits                     5220                       # Number of row buffer hits during reads
system.mem_ctrls.writeRowHits                     446                       # Number of row buffer hits during writes
system.mem_ctrls.readRowHitRate                 68.34                       # Row buffer hit rate for reads
system.mem_ctrls.writeRowHitRate                45.46                       # Row buffer hit rate for writes
system.mem_ctrls.avgGap                      92008.77                       # Average gap between requests
system.mem_ctrls.pageHitRate                    65.74                       # Row buffer hit rate, read and write combined
system.mem_ctrls_0.actEnergy                  9684360                       # Energy for activate commands per rank (pJ)
system.mem_ctrls_0.preEnergy                  5284125                       # Energy for precharge commands per rank (pJ)
system.mem_ctrls_0.readEnergy                26286000                       # Energy for read commands per rank (pJ)
system.mem_ctrls_0.writeEnergy                3661200                       # Energy for write commands per rank (pJ)
system.mem_ctrls_0.refreshEnergy             51873120                       # Energy for refresh commands per rank (pJ)
system.mem_ctrls_0.actBackEnergy            498336750                       # Energy for active background per rank (pJ)
system.mem_ctrls_0.preBackEnergy             39528750                       # Energy for precharge background per rank (pJ)
system.mem_ctrls_0.totalEnergy              634654305                       # Total energy per rank (pJ)
system.mem_ctrls_0.averagePower            798.866257                       # Core power per rank (mW)
system.mem_ctrls_0.memoryStateTime::IDLE     63424250                       # Time in different power states
system.mem_ctrls_0.memoryStateTime::REF      26520000                       # Time in different power states
system.mem_ctrls_0.memoryStateTime::PRE_PDN            0                       # Time in different power states
system.mem_ctrls_0.memoryStateTime::ACT     704889250                       # Time in different power states
system.mem_ctrls_0.memoryStateTime::ACT_PDN            0                       # Time in different power states
system.mem_ctrls_1.actEnergy                 12398400                       # Energy for activate commands per rank (pJ)
system.mem_ctrls_1.preEnergy                  6765000                       # Energy for precharge commands per rank (pJ)
system.mem_ctrls_1.readEnergy                33056400                       # Energy for read commands per rank (pJ)
system.mem_ctrls_1.writeEnergy                2546640                       # Energy for write commands per rank (pJ)
system.mem_ctrls_1.refreshEnergy             51873120                       # Energy for refresh commands per rank (pJ)
system.mem_ctrls_1.actBackEnergy            509713380                       # Energy for active background per rank (pJ)
system.mem_ctrls_1.preBackEnergy             29557500                       # Energy for precharge background per rank (pJ)
system.mem_ctrls_1.totalEnergy              645910440                       # Total energy per rank (pJ)
system.mem_ctrls_1.averagePower            813.020759                       # Core power per rank (mW)
system.mem_ctrls_1.memoryStateTime::IDLE     46727750                       # Time in different power states
system.mem_ctrls_1.memoryStateTime::REF      26520000                       # Time in different power states
system.mem_ctrls_1.memoryStateTime::PRE_PDN            0                       # Time in different power states
system.mem_ctrls_1.memoryStateTime::ACT     721744250                       # Time in different power states
system.mem_ctrls_1.memoryStateTime::ACT_PDN            0                       # Time in different power states
system.cpu_voltage_domain.voltage                   1                       # Voltage in Volts
system.cpu_clk_domain.clock                       500                       # Clock period in ticks
system.cpu.dtb.fetch_hits                           0                       # ITB hits
system.cpu.dtb.fetch_misses                         0                       # ITB misses
system.cpu.dtb.fetch_acv                            0                       # ITB acv
system.cpu.dtb.fetch_accesses                       0                       # ITB accesses
system.cpu.dtb.read_hits                            0                       # DTB read hits
system.cpu.dtb.read_misses                          0                       # DTB read misses
system.cpu.dtb.read_acv                             0                       # DTB read access violations
system.cpu.dtb.read_accesses                        0                       # DTB read accesses
system.cpu.dtb.write_hits                           0                       # DTB write hits
system.cpu.dtb.write_misses                         0                       # DTB write misses
system.cpu.dtb.write_acv                            0                       # DTB write access violations
system.cpu.dtb.write_accesses                       0                       # DTB write accesses
system.cpu.dtb.data_hits                            0                       # DTB hits
system.cpu.dtb.data_misses                          0                       # DTB misses
system.cpu.dtb.data_acv                             0                       # DTB access violations
system.cpu.dtb.data_accesses                        0                       # DTB accesses
system.cpu.itb.fetch_hits                           0                       # ITB hits
system.cpu.itb.fetch_misses                         0                       # ITB misses
system.cpu.itb.fetch_acv                            0                       # ITB acv
system.cpu.itb.fetch_accesses                       0                       # ITB accesses
system.cpu.itb.read_hits                            0                       # DTB read hits
system.cpu.itb.read_misses                          0                       # DTB read misses
system.cpu.itb.read_acv                             0                       # DTB read access violations
system.cpu.itb.read_accesses                        0                       # DTB read accesses
system.cpu.itb.write_hits                           0                       # DTB write hits
system.cpu.itb.write_misses                         0                       # DTB write misses
system.cpu.itb.write_acv                            0                       # DTB write access violations
system.cpu.itb.write_accesses                       0                       # DTB write accesses
system.cpu.itb.data_hits                            0                       # DTB hits
system.cpu.itb.data_misses                          0                       # DTB misses
system.cpu.itb.data_acv                             0                       # DTB access violations
system.cpu.itb.data_accesses                        0                       # DTB accesses
system.cpu.numCycles                                0                       # number of cpu cycles simulated
system.cpu.numWorkItemsStarted                      0                       # number of work items this cpu started
system.cpu.numWorkItemsCompleted                    0                       # number of work items this cpu completed
system.cpu.committedInsts                           0                       # Number of instructions committed
system.cpu.committedOps                             0                       # Number of ops (including micro ops) committed
system.cpu.num_int_alu_accesses                     0                       # Number of integer alu accesses
system.cpu.num_fp_alu_accesses                      0                       # Number of float alu accesses
system.cpu.num_func_calls                           0                       # number of times a function call or return occured
system.cpu.num_conditional_control_insts            0                       # number of instructions that are conditional controls
system.cpu.num_int_insts                            0                       # number of integer instructions
system.cpu.num_fp_insts                             0                       # number of float instructions
system.cpu.num_int_register_reads                   0                       # number of times the integer registers were read
system.cpu.num_int_register_writes                  0                       # number of times the integer registers were written
system.cpu.num_fp_register_reads                    0                       # number of times the floating registers were read
system.cpu.num_fp_register_writes                   0                       # number of times the floating registers were written
system.cpu.num_mem_refs                             0                       # number of memory refs
system.cpu.num_load_insts                           0                       # Number of load instructions
system.cpu.num_store_insts                          0                       # Number of store instructions
system.cpu.num_idle_cycles                          0                       # Number of idle cycles
system.cpu.num_busy_cycles                          0                       # Number of busy cycles
system.cpu.not_idle_fraction                        1                       # Percentage of non-idle cycles
system.cpu.idle_fraction                            0                       # Percentage of idle cycles
system.cpu.op_class::No_OpClass                     0                       # Class of executed instruction
system.cpu.op_class::IntAlu                         0                       # Class of executed instruction
system.cpu.op_class::IntMult                        0                       # Class of executed instruction
system.cpu.op_class::IntDiv                         0                       # Class of executed instruction
system.cpu.op_class::FloatAdd                       0                       # Class of executed instruction
system.cpu.op_class::FloatCmp                       0                       # Class of executed instruction
system.cpu.op_class::FloatCvt                       0                       # Class of executed instruction
system.cpu.op_class::FloatMult                      0                       # Class of executed instruction
system.cpu.op_class::FloatDiv                       0                       # Class of executed instruction
system.cpu.op_class::FloatSqrt                      0                       # Class of executed instruction
system.cpu.op_class::SimdAdd                        0                       # Class of executed instruction
system.cpu.op_class::SimdAddAcc                     0                       # Class of executed instruction
system.cpu.op_class::SimdAlu                        0                       # Class of executed instruction
system.cpu.op_class::SimdCmp                        0                       # Class of executed instruction
system.cpu.op_class::SimdCvt                        0                       # Class of executed instruction
system.cpu.op_class::SimdMisc                       0                       # Class of executed instruction
system.cpu.op_class::SimdMult                       0                       # Class of executed instruction
system.cpu.op_class::SimdMultAcc                    0                       # Class of executed instruction
system.cpu.op_class::SimdShift                      0                       # Class of executed instruction
system.cpu.op_class::SimdShiftAcc                   0                       # Class of executed instruction
system.cpu.op_class::SimdSqrt                       0                       # Class of executed instruction
system.cpu.op_class::SimdFloatAdd                   0                       # Class of executed instruction
system.cpu.op_class::SimdFloatAlu                   0                       # Class of executed instruction
system.cpu.op_class::SimdFloatCmp                   0                       # Class of executed instruction
system.cpu.op_class::SimdFloatCvt                   0                       # Class of executed instruction
system.cpu.op_class::SimdFloatDiv                   0                       # Class of executed instruction
system.cpu.op_class::SimdFloatMisc                  0                       # Class of executed instruction
system.cpu.op_class::SimdFloatMult                  0                       # Class of executed instruction
system.cpu.op_class::SimdFloatMultAcc               0                       # Class of executed instruction
system.cpu.op_class::SimdFloatSqrt                  0                       # Class of executed instruction
system.cpu.op_class::MemRead                        0                       # Class of executed instruction
system.cpu.op_class::MemWrite                       0                       # Class of executed instruction
system.cpu.op_class::IprAccess                      0                       # Class of executed instruction
system.cpu.op_class::InstPrefetch                   0                       # Class of executed instruction
system.cpu.op_class::total                          0                       # Class of executed instruction
system.cpu.kern.inst.arm                            0                       # number of arm instructions executed
system.cpu.kern.inst.quiesce                        0                       # number of quiesce instructions executed
system.cpu.kern.inst.hwrei                       2781                       # number of hwrei instructions executed
system.cpu.kern.ipl_count::0                      635     49.15%     49.15% # number of times we switched to this ipl
system.cpu.kern.ipl_count::22                       1      0.08%     49.23% # number of times we switched to this ipl
system.cpu.kern.ipl_count::31                     656     50.77%    100.00% # number of times we switched to this ipl
system.cpu.kern.ipl_count::total                 1292                       # number of times we switched to this ipl
system.cpu.kern.ipl_good::0                       633     49.96%     49.96% # number of times we switched to this ipl from a different ipl
system.cpu.kern.ipl_good::22                        1      0.08%     50.04% # number of times we switched to this ipl from a different ipl
system.cpu.kern.ipl_good::31                      633     49.96%    100.00% # number of times we switched to this ipl from a different ipl
system.cpu.kern.ipl_good::total                  1267                       # number of times we switched to this ipl from a different ipl
system.cpu.kern.ipl_ticks::0                715925000     89.83%     89.83% # number of cycles we spent at this ipl
system.cpu.kern.ipl_ticks::22                 1511500      0.19%     90.02% # number of cycles we spent at this ipl
system.cpu.kern.ipl_ticks::31                79509500      9.98%    100.00% # number of cycles we spent at this ipl
system.cpu.kern.ipl_ticks::total            796946000                       # number of cycles we spent at this ipl
system.cpu.kern.ipl_used::0                  0.996850                       # fraction of swpipl calls that actually changed the ipl
system.cpu.kern.ipl_used::22                        1                       # fraction of swpipl calls that actually changed the ipl
system.cpu.kern.ipl_used::31                 0.964939                       # fraction of swpipl calls that actually changed the ipl
system.cpu.kern.ipl_used::total              0.980650                       # fraction of swpipl calls that actually changed the ipl
system.cpu.kern.syscall::2                          1      5.56%      5.56% # number of syscalls executed
system.cpu.kern.syscall::3                          2     11.11%     16.67% # number of syscalls executed
system.cpu.kern.syscall::6                          2     11.11%     27.78% # number of syscalls executed
system.cpu.kern.syscall::17                         1      5.56%     33.33% # number of syscalls executed
system.cpu.kern.syscall::19                         1      5.56%     38.89% # number of syscalls executed
system.cpu.kern.syscall::33                         1      5.56%     44.44% # number of syscalls executed
system.cpu.kern.syscall::45                         3     16.67%     61.11% # number of syscalls executed
system.cpu.kern.syscall::48                         1      5.56%     66.67% # number of syscalls executed
system.cpu.kern.syscall::59                         1      5.56%     72.22% # number of syscalls executed
system.cpu.kern.syscall::71                         4     22.22%     94.44% # number of syscalls executed
system.cpu.kern.syscall::74                         1      5.56%    100.00% # number of syscalls executed
system.cpu.kern.syscall::total                     18                       # number of syscalls executed
system.cpu.kern.callpal::swpctx                   118      8.10%      8.10% # number of callpals executed
system.cpu.kern.callpal::tbi                        6      0.41%      8.51% # number of callpals executed
system.cpu.kern.callpal::swpipl                  1107     75.98%     84.49% # number of callpals executed
system.cpu.kern.callpal::rdps                       3      0.21%     84.69% # number of callpals executed
system.cpu.kern.callpal::wrusp                      1      0.07%     84.76% # number of callpals executed
system.cpu.kern.callpal::rdusp                      1      0.07%     84.83% # number of callpals executed
system.cpu.kern.callpal::rti                      184     12.63%     97.46% # number of callpals executed
system.cpu.kern.callpal::callsys                   33      2.26%     99.73% # number of callpals executed
system.cpu.kern.callpal::imb                        4      0.27%    100.00% # number of callpals executed
system.cpu.kern.callpal::total                   1457                       # number of callpals executed
system.cpu.kern.mode_switch::kernel               302                       # number of protection mode switches
system.cpu.kern.mode_switch::user                 181                       # number of protection mode switches
system.cpu.kern.mode_switch::idle                   0                       # number of protection mode switches
system.cpu.kern.mode_good::kernel                 181                      
system.cpu.kern.mode_good::user                   181                      
system.cpu.kern.mode_good::idle                     0                      
system.cpu.kern.mode_switch_good::kernel     0.599338                       # fraction of useful protection mode switches
system.cpu.kern.mode_switch_good::user              1                       # fraction of useful protection mode switches
system.cpu.kern.mode_switch_good::idle            nan                       # fraction of useful protection mode switches
system.cpu.kern.mode_switch_good::total      0.749482                       # fraction of useful protection mode switches
system.cpu.kern.mode_ticks::kernel          540418500     67.81%     67.81% # number of ticks spent at the given mode
system.cpu.kern.mode_ticks::user            256520500     32.19%    100.00% # number of ticks spent at the given mode
system.cpu.kern.mode_ticks::idle                    0      0.00%    100.00% # number of ticks spent at the given mode
system.cpu.kern.swap_context                      118                       # number of times the context was actually changed
system.cpu.dcache.tags.replacements             18287                       # number of replacements
system.cpu.dcache.tags.tagsinuse                  512                       # Cycle average of tags in use
system.cpu.dcache.tags.total_refs              199644                       # Total number of references to valid blocks.
system.cpu.dcache.tags.sampled_refs             18287                       # Sample count of references to valid blocks.
system.cpu.dcache.tags.avg_refs             10.917264                       # Average number of references to valid blocks.
system.cpu.dcache.tags.warmup_cycle                 0                       # Cycle when the warmup percentage was hit.
system.cpu.dcache.tags.occ_blocks::cpu.data    28.931670                       # Average occupied blocks per requestor
system.cpu.dcache.tags.occ_blocks::switch_cpus.data   483.068330                       # Average occupied blocks per requestor
system.cpu.dcache.tags.occ_percent::cpu.data     0.056507                       # Average percentage of cache occupancy
system.cpu.dcache.tags.occ_percent::switch_cpus.data     0.943493                       # Average percentage of cache occupancy
system.cpu.dcache.tags.occ_percent::total            1                       # Average percentage of cache occupancy
system.cpu.dcache.tags.occ_task_id_blocks::1024          512                       # Occupied blocks per task id
system.cpu.dcache.tags.age_task_id_blocks_1024::0          433                       # Occupied blocks per task id
system.cpu.dcache.tags.age_task_id_blocks_1024::1           78                       # Occupied blocks per task id
system.cpu.dcache.tags.age_task_id_blocks_1024::2            1                       # Occupied blocks per task id
system.cpu.dcache.tags.occ_task_id_percent::1024            1                       # Percentage of cache occupancy per task id
system.cpu.dcache.tags.tag_accesses           1181135                       # Number of tag accesses
system.cpu.dcache.tags.data_accesses          1181135                       # Number of data accesses
system.cpu.dcache.ReadReq_hits::switch_cpus.data       133340                       # number of ReadReq hits
system.cpu.dcache.ReadReq_hits::total          133340                       # number of ReadReq hits
system.cpu.dcache.WriteReq_hits::switch_cpus.data        58819                       # number of WriteReq hits
system.cpu.dcache.WriteReq_hits::total          58819                       # number of WriteReq hits
system.cpu.dcache.LoadLockedReq_hits::switch_cpus.data         2231                       # number of LoadLockedReq hits
system.cpu.dcache.LoadLockedReq_hits::total         2231                       # number of LoadLockedReq hits
system.cpu.dcache.StoreCondReq_hits::switch_cpus.data         2378                       # number of StoreCondReq hits
system.cpu.dcache.StoreCondReq_hits::total         2378                       # number of StoreCondReq hits
system.cpu.dcache.demand_hits::switch_cpus.data       192159                       # number of demand (read+write) hits
system.cpu.dcache.demand_hits::total           192159                       # number of demand (read+write) hits
system.cpu.dcache.overall_hits::switch_cpus.data       192159                       # number of overall hits
system.cpu.dcache.overall_hits::total          192159                       # number of overall hits
system.cpu.dcache.ReadReq_misses::switch_cpus.data        26131                       # number of ReadReq misses
system.cpu.dcache.ReadReq_misses::total         26131                       # number of ReadReq misses
system.cpu.dcache.WriteReq_misses::switch_cpus.data        67418                       # number of WriteReq misses
system.cpu.dcache.WriteReq_misses::total        67418                       # number of WriteReq misses
system.cpu.dcache.LoadLockedReq_misses::switch_cpus.data          395                       # number of LoadLockedReq misses
system.cpu.dcache.LoadLockedReq_misses::total          395                       # number of LoadLockedReq misses
system.cpu.dcache.demand_misses::switch_cpus.data        93549                       # number of demand (read+write) misses
system.cpu.dcache.demand_misses::total          93549                       # number of demand (read+write) misses
system.cpu.dcache.overall_misses::switch_cpus.data        93549                       # number of overall misses
system.cpu.dcache.overall_misses::total         93549                       # number of overall misses
system.cpu.dcache.ReadReq_miss_latency::switch_cpus.data    727639250                       # number of ReadReq miss cycles
system.cpu.dcache.ReadReq_miss_latency::total    727639250                       # number of ReadReq miss cycles
system.cpu.dcache.WriteReq_miss_latency::switch_cpus.data   1057259466                       # number of WriteReq miss cycles
system.cpu.dcache.WriteReq_miss_latency::total   1057259466                       # number of WriteReq miss cycles
system.cpu.dcache.LoadLockedReq_miss_latency::switch_cpus.data     10301500                       # number of LoadLockedReq miss cycles
system.cpu.dcache.LoadLockedReq_miss_latency::total     10301500                       # number of LoadLockedReq miss cycles
system.cpu.dcache.demand_miss_latency::switch_cpus.data   1784898716                       # number of demand (read+write) miss cycles
system.cpu.dcache.demand_miss_latency::total   1784898716                       # number of demand (read+write) miss cycles
system.cpu.dcache.overall_miss_latency::switch_cpus.data   1784898716                       # number of overall miss cycles
system.cpu.dcache.overall_miss_latency::total   1784898716                       # number of overall miss cycles
system.cpu.dcache.ReadReq_accesses::switch_cpus.data       159471                       # number of ReadReq accesses(hits+misses)
system.cpu.dcache.ReadReq_accesses::total       159471                       # number of ReadReq accesses(hits+misses)
system.cpu.dcache.WriteReq_accesses::switch_cpus.data       126237                       # number of WriteReq accesses(hits+misses)
system.cpu.dcache.WriteReq_accesses::total       126237                       # number of WriteReq accesses(hits+misses)
system.cpu.dcache.LoadLockedReq_accesses::switch_cpus.data         2626                       # number of LoadLockedReq accesses(hits+misses)
system.cpu.dcache.LoadLockedReq_accesses::total         2626                       # number of LoadLockedReq accesses(hits+misses)
system.cpu.dcache.StoreCondReq_accesses::switch_cpus.data         2378                       # number of StoreCondReq accesses(hits+misses)
system.cpu.dcache.StoreCondReq_accesses::total         2378                       # number of StoreCondReq accesses(hits+misses)
system.cpu.dcache.demand_accesses::switch_cpus.data       285708                       # number of demand (read+write) accesses
system.cpu.dcache.demand_accesses::total       285708                       # number of demand (read+write) accesses
system.cpu.dcache.overall_accesses::switch_cpus.data       285708                       # number of overall (read+write) accesses
system.cpu.dcache.overall_accesses::total       285708                       # number of overall (read+write) accesses
system.cpu.dcache.ReadReq_miss_rate::switch_cpus.data     0.163861                       # miss rate for ReadReq accesses
system.cpu.dcache.ReadReq_miss_rate::total     0.163861                       # miss rate for ReadReq accesses
system.cpu.dcache.WriteReq_miss_rate::switch_cpus.data     0.534059                       # miss rate for WriteReq accesses
system.cpu.dcache.WriteReq_miss_rate::total     0.534059                       # miss rate for WriteReq accesses
system.cpu.dcache.LoadLockedReq_miss_rate::switch_cpus.data     0.150419                       # miss rate for LoadLockedReq accesses
system.cpu.dcache.LoadLockedReq_miss_rate::total     0.150419                       # miss rate for LoadLockedReq accesses
system.cpu.dcache.demand_miss_rate::switch_cpus.data     0.327429                       # miss rate for demand accesses
system.cpu.dcache.demand_miss_rate::total     0.327429                       # miss rate for demand accesses
system.cpu.dcache.overall_miss_rate::switch_cpus.data     0.327429                       # miss rate for overall accesses
system.cpu.dcache.overall_miss_rate::total     0.327429                       # miss rate for overall accesses
system.cpu.dcache.ReadReq_avg_miss_latency::switch_cpus.data 27845.824882                       # average ReadReq miss latency
system.cpu.dcache.ReadReq_avg_miss_latency::total 27845.824882                       # average ReadReq miss latency
system.cpu.dcache.WriteReq_avg_miss_latency::switch_cpus.data 15682.154113                       # average WriteReq miss latency
system.cpu.dcache.WriteReq_avg_miss_latency::total 15682.154113                       # average WriteReq miss latency
system.cpu.dcache.LoadLockedReq_avg_miss_latency::switch_cpus.data 26079.746835                       # average LoadLockedReq miss latency
system.cpu.dcache.LoadLockedReq_avg_miss_latency::total 26079.746835                       # average LoadLockedReq miss latency
system.cpu.dcache.demand_avg_miss_latency::switch_cpus.data 19079.826786                       # average overall miss latency
system.cpu.dcache.demand_avg_miss_latency::total 19079.826786                       # average overall miss latency
system.cpu.dcache.overall_avg_miss_latency::switch_cpus.data 19079.826786                       # average overall miss latency
system.cpu.dcache.overall_avg_miss_latency::total 19079.826786                       # average overall miss latency
system.cpu.dcache.blocked_cycles::no_mshrs        41418                       # number of cycles access was blocked
system.cpu.dcache.blocked_cycles::no_targets            0                       # number of cycles access was blocked
system.cpu.dcache.blocked::no_mshrs              4231                       # number of cycles access was blocked
system.cpu.dcache.blocked::no_targets               0                       # number of cycles access was blocked
system.cpu.dcache.avg_blocked_cycles::no_mshrs     9.789175                       # average number of cycles each access was blocked
system.cpu.dcache.avg_blocked_cycles::no_targets          nan                       # average number of cycles each access was blocked
system.cpu.dcache.fast_writes                       0                       # number of fast writes performed
system.cpu.dcache.cache_copies                      0                       # number of cache copies performed
system.cpu.dcache.writebacks::writebacks        13119                       # number of writebacks
system.cpu.dcache.writebacks::total             13119                       # number of writebacks
system.cpu.dcache.ReadReq_mshr_hits::switch_cpus.data        17163                       # number of ReadReq MSHR hits
system.cpu.dcache.ReadReq_mshr_hits::total        17163                       # number of ReadReq MSHR hits
system.cpu.dcache.WriteReq_mshr_hits::switch_cpus.data        58313                       # number of WriteReq MSHR hits
system.cpu.dcache.WriteReq_mshr_hits::total        58313                       # number of WriteReq MSHR hits
system.cpu.dcache.LoadLockedReq_mshr_hits::switch_cpus.data          172                       # number of LoadLockedReq MSHR hits
system.cpu.dcache.LoadLockedReq_mshr_hits::total          172                       # number of LoadLockedReq MSHR hits
system.cpu.dcache.demand_mshr_hits::switch_cpus.data        75476                       # number of demand (read+write) MSHR hits
system.cpu.dcache.demand_mshr_hits::total        75476                       # number of demand (read+write) MSHR hits
system.cpu.dcache.overall_mshr_hits::switch_cpus.data        75476                       # number of overall MSHR hits
system.cpu.dcache.overall_mshr_hits::total        75476                       # number of overall MSHR hits
system.cpu.dcache.ReadReq_mshr_misses::switch_cpus.data         8968                       # number of ReadReq MSHR misses
system.cpu.dcache.ReadReq_mshr_misses::total         8968                       # number of ReadReq MSHR misses
system.cpu.dcache.WriteReq_mshr_misses::switch_cpus.data         9105                       # number of WriteReq MSHR misses
system.cpu.dcache.WriteReq_mshr_misses::total         9105                       # number of WriteReq MSHR misses
system.cpu.dcache.LoadLockedReq_mshr_misses::switch_cpus.data          223                       # number of LoadLockedReq MSHR misses
system.cpu.dcache.LoadLockedReq_mshr_misses::total          223                       # number of LoadLockedReq MSHR misses
system.cpu.dcache.demand_mshr_misses::switch_cpus.data        18073                       # number of demand (read+write) MSHR misses
system.cpu.dcache.demand_mshr_misses::total        18073                       # number of demand (read+write) MSHR misses
system.cpu.dcache.overall_mshr_misses::switch_cpus.data        18073                       # number of overall MSHR misses
system.cpu.dcache.overall_mshr_misses::total        18073                       # number of overall MSHR misses
system.cpu.dcache.WriteReq_mshr_uncacheable::switch_cpus.data            1                       # number of WriteReq MSHR uncacheable
system.cpu.dcache.WriteReq_mshr_uncacheable::total            1                       # number of WriteReq MSHR uncacheable
system.cpu.dcache.overall_mshr_uncacheable_misses::switch_cpus.data            1                       # number of overall MSHR uncacheable misses
system.cpu.dcache.overall_mshr_uncacheable_misses::total            1                       # number of overall MSHR uncacheable misses
system.cpu.dcache.ReadReq_mshr_miss_latency::switch_cpus.data    263473750                       # number of ReadReq MSHR miss cycles
system.cpu.dcache.ReadReq_mshr_miss_latency::total    263473750                       # number of ReadReq MSHR miss cycles
system.cpu.dcache.WriteReq_mshr_miss_latency::switch_cpus.data    145238556                       # number of WriteReq MSHR miss cycles
system.cpu.dcache.WriteReq_mshr_miss_latency::total    145238556                       # number of WriteReq MSHR miss cycles
system.cpu.dcache.LoadLockedReq_mshr_miss_latency::switch_cpus.data      4895750                       # number of LoadLockedReq MSHR miss cycles
system.cpu.dcache.LoadLockedReq_mshr_miss_latency::total      4895750                       # number of LoadLockedReq MSHR miss cycles
system.cpu.dcache.demand_mshr_miss_latency::switch_cpus.data    408712306                       # number of demand (read+write) MSHR miss cycles
system.cpu.dcache.demand_mshr_miss_latency::total    408712306                       # number of demand (read+write) MSHR miss cycles
system.cpu.dcache.overall_mshr_miss_latency::switch_cpus.data    408712306                       # number of overall MSHR miss cycles
system.cpu.dcache.overall_mshr_miss_latency::total    408712306                       # number of overall MSHR miss cycles
system.cpu.dcache.WriteReq_mshr_uncacheable_latency::switch_cpus.data       223500                       # number of WriteReq MSHR uncacheable cycles
system.cpu.dcache.WriteReq_mshr_uncacheable_latency::total       223500                       # number of WriteReq MSHR uncacheable cycles
system.cpu.dcache.overall_mshr_uncacheable_latency::switch_cpus.data       223500                       # number of overall MSHR uncacheable cycles
system.cpu.dcache.overall_mshr_uncacheable_latency::total       223500                       # number of overall MSHR uncacheable cycles
system.cpu.dcache.ReadReq_mshr_miss_rate::switch_cpus.data     0.056236                       # mshr miss rate for ReadReq accesses
system.cpu.dcache.ReadReq_mshr_miss_rate::total     0.056236                       # mshr miss rate for ReadReq accesses
system.cpu.dcache.WriteReq_mshr_miss_rate::switch_cpus.data     0.072126                       # mshr miss rate for WriteReq accesses
system.cpu.dcache.WriteReq_mshr_miss_rate::total     0.072126                       # mshr miss rate for WriteReq accesses
system.cpu.dcache.LoadLockedReq_mshr_miss_rate::switch_cpus.data     0.084920                       # mshr miss rate for LoadLockedReq accesses
system.cpu.dcache.LoadLockedReq_mshr_miss_rate::total     0.084920                       # mshr miss rate for LoadLockedReq accesses
system.cpu.dcache.demand_mshr_miss_rate::switch_cpus.data     0.063257                       # mshr miss rate for demand accesses
system.cpu.dcache.demand_mshr_miss_rate::total     0.063257                       # mshr miss rate for demand accesses
system.cpu.dcache.overall_mshr_miss_rate::switch_cpus.data     0.063257                       # mshr miss rate for overall accesses
system.cpu.dcache.overall_mshr_miss_rate::total     0.063257                       # mshr miss rate for overall accesses
system.cpu.dcache.ReadReq_avg_mshr_miss_latency::switch_cpus.data 29379.320919                       # average ReadReq mshr miss latency
system.cpu.dcache.ReadReq_avg_mshr_miss_latency::total 29379.320919                       # average ReadReq mshr miss latency
system.cpu.dcache.WriteReq_avg_mshr_miss_latency::switch_cpus.data 15951.516310                       # average WriteReq mshr miss latency
system.cpu.dcache.WriteReq_avg_mshr_miss_latency::total 15951.516310                       # average WriteReq mshr miss latency
system.cpu.dcache.LoadLockedReq_avg_mshr_miss_latency::switch_cpus.data 21954.035874                       # average LoadLockedReq mshr miss latency
system.cpu.dcache.LoadLockedReq_avg_mshr_miss_latency::total 21954.035874                       # average LoadLockedReq mshr miss latency
system.cpu.dcache.demand_avg_mshr_miss_latency::switch_cpus.data 22614.524761                       # average overall mshr miss latency
system.cpu.dcache.demand_avg_mshr_miss_latency::total 22614.524761                       # average overall mshr miss latency
system.cpu.dcache.overall_avg_mshr_miss_latency::switch_cpus.data 22614.524761                       # average overall mshr miss latency
system.cpu.dcache.overall_avg_mshr_miss_latency::total 22614.524761                       # average overall mshr miss latency
system.cpu.dcache.WriteReq_avg_mshr_uncacheable_latency::switch_cpus.data       223500                       # average WriteReq mshr uncacheable latency
system.cpu.dcache.WriteReq_avg_mshr_uncacheable_latency::total       223500                       # average WriteReq mshr uncacheable latency
system.cpu.dcache.overall_avg_mshr_uncacheable_latency::switch_cpus.data       223500                       # average overall mshr uncacheable latency
system.cpu.dcache.overall_avg_mshr_uncacheable_latency::total       223500                       # average overall mshr uncacheable latency
system.cpu.dcache.no_allocate_misses                0                       # Number of misses that were no-allocate
system.cpu.icache.tags.replacements             10264                       # number of replacements
system.cpu.icache.tags.tagsinuse           511.886119                       # Cycle average of tags in use
system.cpu.icache.tags.total_refs              360521                       # Total number of references to valid blocks.
system.cpu.icache.tags.sampled_refs             10264                       # Sample count of references to valid blocks.
system.cpu.icache.tags.avg_refs             35.124805                       # Average number of references to valid blocks.
system.cpu.icache.tags.warmup_cycle                 0                       # Cycle when the warmup percentage was hit.
system.cpu.icache.tags.occ_blocks::cpu.inst    24.886999                       # Average occupied blocks per requestor
system.cpu.icache.tags.occ_blocks::switch_cpus.inst   486.999120                       # Average occupied blocks per requestor
system.cpu.icache.tags.occ_percent::cpu.inst     0.048607                       # Average percentage of cache occupancy
system.cpu.icache.tags.occ_percent::switch_cpus.inst     0.951170                       # Average percentage of cache occupancy
system.cpu.icache.tags.occ_percent::total     0.999778                       # Average percentage of cache occupancy
system.cpu.icache.tags.occ_task_id_blocks::1024          511                       # Occupied blocks per task id
system.cpu.icache.tags.age_task_id_blocks_1024::0           65                       # Occupied blocks per task id
system.cpu.icache.tags.age_task_id_blocks_1024::1          104                       # Occupied blocks per task id
system.cpu.icache.tags.age_task_id_blocks_1024::2          342                       # Occupied blocks per task id
system.cpu.icache.tags.occ_task_id_percent::1024     0.998047                       # Percentage of cache occupancy per task id
system.cpu.icache.tags.tag_accesses            334776                       # Number of tag accesses
system.cpu.icache.tags.data_accesses           334776                       # Number of data accesses
system.cpu.icache.ReadReq_hits::switch_cpus.inst       150051                       # number of ReadReq hits
system.cpu.icache.ReadReq_hits::total          150051                       # number of ReadReq hits
system.cpu.icache.demand_hits::switch_cpus.inst       150051                       # number of demand (read+write) hits
system.cpu.icache.demand_hits::total           150051                       # number of demand (read+write) hits
system.cpu.icache.overall_hits::switch_cpus.inst       150051                       # number of overall hits
system.cpu.icache.overall_hits::total          150051                       # number of overall hits
system.cpu.icache.ReadReq_misses::switch_cpus.inst        12201                       # number of ReadReq misses
system.cpu.icache.ReadReq_misses::total         12201                       # number of ReadReq misses
system.cpu.icache.demand_misses::switch_cpus.inst        12201                       # number of demand (read+write) misses
system.cpu.icache.demand_misses::total          12201                       # number of demand (read+write) misses
system.cpu.icache.overall_misses::switch_cpus.inst        12201                       # number of overall misses
system.cpu.icache.overall_misses::total         12201                       # number of overall misses
system.cpu.icache.ReadReq_miss_latency::switch_cpus.inst    566903736                       # number of ReadReq miss cycles
system.cpu.icache.ReadReq_miss_latency::total    566903736                       # number of ReadReq miss cycles
system.cpu.icache.demand_miss_latency::switch_cpus.inst    566903736                       # number of demand (read+write) miss cycles
system.cpu.icache.demand_miss_latency::total    566903736                       # number of demand (read+write) miss cycles
system.cpu.icache.overall_miss_latency::switch_cpus.inst    566903736                       # number of overall miss cycles
system.cpu.icache.overall_miss_latency::total    566903736                       # number of overall miss cycles
system.cpu.icache.ReadReq_accesses::switch_cpus.inst       162252                       # number of ReadReq accesses(hits+misses)
system.cpu.icache.ReadReq_accesses::total       162252                       # number of ReadReq accesses(hits+misses)
system.cpu.icache.demand_accesses::switch_cpus.inst       162252                       # number of demand (read+write) accesses
system.cpu.icache.demand_accesses::total       162252                       # number of demand (read+write) accesses
system.cpu.icache.overall_accesses::switch_cpus.inst       162252                       # number of overall (read+write) accesses
system.cpu.icache.overall_accesses::total       162252                       # number of overall (read+write) accesses
system.cpu.icache.ReadReq_miss_rate::switch_cpus.inst     0.075198                       # miss rate for ReadReq accesses
system.cpu.icache.ReadReq_miss_rate::total     0.075198                       # miss rate for ReadReq accesses
system.cpu.icache.demand_miss_rate::switch_cpus.inst     0.075198                       # miss rate for demand accesses
system.cpu.icache.demand_miss_rate::total     0.075198                       # miss rate for demand accesses
system.cpu.icache.overall_miss_rate::switch_cpus.inst     0.075198                       # miss rate for overall accesses
system.cpu.icache.overall_miss_rate::total     0.075198                       # miss rate for overall accesses
system.cpu.icache.ReadReq_avg_miss_latency::switch_cpus.inst 46463.710843                       # average ReadReq miss latency
system.cpu.icache.ReadReq_avg_miss_latency::total 46463.710843                       # average ReadReq miss latency
system.cpu.icache.demand_avg_miss_latency::switch_cpus.inst 46463.710843                       # average overall miss latency
system.cpu.icache.demand_avg_miss_latency::total 46463.710843                       # average overall miss latency
system.cpu.icache.overall_avg_miss_latency::switch_cpus.inst 46463.710843                       # average overall miss latency
system.cpu.icache.overall_avg_miss_latency::total 46463.710843                       # average overall miss latency
system.cpu.icache.blocked_cycles::no_mshrs         1870                       # number of cycles access was blocked
system.cpu.icache.blocked_cycles::no_targets            0                       # number of cycles access was blocked
system.cpu.icache.blocked::no_mshrs                44                       # number of cycles access was blocked
system.cpu.icache.blocked::no_targets               0                       # number of cycles access was blocked
system.cpu.icache.avg_blocked_cycles::no_mshrs    42.500000                       # average number of cycles each access was blocked
system.cpu.icache.avg_blocked_cycles::no_targets          nan                       # average number of cycles each access was blocked
system.cpu.icache.fast_writes                       0                       # number of fast writes performed
system.cpu.icache.cache_copies                      0                       # number of cache copies performed
system.cpu.icache.ReadReq_mshr_hits::switch_cpus.inst         1926                       # number of ReadReq MSHR hits
system.cpu.icache.ReadReq_mshr_hits::total         1926                       # number of ReadReq MSHR hits
system.cpu.icache.demand_mshr_hits::switch_cpus.inst         1926                       # number of demand (read+write) MSHR hits
system.cpu.icache.demand_mshr_hits::total         1926                       # number of demand (read+write) MSHR hits
system.cpu.icache.overall_mshr_hits::switch_cpus.inst         1926                       # number of overall MSHR hits
system.cpu.icache.overall_mshr_hits::total         1926                       # number of overall MSHR hits
system.cpu.icache.ReadReq_mshr_misses::switch_cpus.inst        10275                       # number of ReadReq MSHR misses
system.cpu.icache.ReadReq_mshr_misses::total        10275                       # number of ReadReq MSHR misses
system.cpu.icache.demand_mshr_misses::switch_cpus.inst        10275                       # number of demand (read+write) MSHR misses
system.cpu.icache.demand_mshr_misses::total        10275                       # number of demand (read+write) MSHR misses
system.cpu.icache.overall_mshr_misses::switch_cpus.inst        10275                       # number of overall MSHR misses
system.cpu.icache.overall_mshr_misses::total        10275                       # number of overall MSHR misses
system.cpu.icache.ReadReq_mshr_miss_latency::switch_cpus.inst    459698261                       # number of ReadReq MSHR miss cycles
system.cpu.icache.ReadReq_mshr_miss_latency::total    459698261                       # number of ReadReq MSHR miss cycles
system.cpu.icache.demand_mshr_miss_latency::switch_cpus.inst    459698261                       # number of demand (read+write) MSHR miss cycles
system.cpu.icache.demand_mshr_miss_latency::total    459698261                       # number of demand (read+write) MSHR miss cycles
system.cpu.icache.overall_mshr_miss_latency::switch_cpus.inst    459698261                       # number of overall MSHR miss cycles
system.cpu.icache.overall_mshr_miss_latency::total    459698261                       # number of overall MSHR miss cycles
system.cpu.icache.ReadReq_mshr_miss_rate::switch_cpus.inst     0.063327                       # mshr miss rate for ReadReq accesses
system.cpu.icache.ReadReq_mshr_miss_rate::total     0.063327                       # mshr miss rate for ReadReq accesses
system.cpu.icache.demand_mshr_miss_rate::switch_cpus.inst     0.063327                       # mshr miss rate for demand accesses
system.cpu.icache.demand_mshr_miss_rate::total     0.063327                       # mshr miss rate for demand accesses
system.cpu.icache.overall_mshr_miss_rate::switch_cpus.inst     0.063327                       # mshr miss rate for overall accesses
system.cpu.icache.overall_mshr_miss_rate::total     0.063327                       # mshr miss rate for overall accesses
system.cpu.icache.ReadReq_avg_mshr_miss_latency::switch_cpus.inst 44739.490122                       # average ReadReq mshr miss latency
system.cpu.icache.ReadReq_avg_mshr_miss_latency::total 44739.490122                       # average ReadReq mshr miss latency
system.cpu.icache.demand_avg_mshr_miss_latency::switch_cpus.inst 44739.490122                       # average overall mshr miss latency
system.cpu.icache.demand_avg_mshr_miss_latency::total 44739.490122                       # average overall mshr miss latency
system.cpu.icache.overall_avg_mshr_miss_latency::switch_cpus.inst 44739.490122                       # average overall mshr miss latency
[...]
system.switch_cpus.iew.wb_fanout             0.752362                       # average fanout of values written-back
system.switch_cpus.iew.wb_penalized_rate            0                       # fraction of instructions written-back that wrote to 'other' IQ
system.switch_cpus.commit.commitSquashedInsts   1223088997                       # The number of squashed insts skipped by commit
system.switch_cpus.commit.commitNonSpecStalls     91068588                       # The number of times commit has been forced to stall to communicate backwards
system.switch_cpus.commit.branchMispredicts     58671080                       # The number of times a branch was mispredicted
system.switch_cpus.commit.committed_per_cycle::samples   6354303069                       # Number of insts commited each cycle
system.switch_cpus.commit.committed_per_cycle::mean     0.809989                       # Number of insts commited each cycle
system.switch_cpus.commit.committed_per_cycle::stdev     1.770083                       # Number of insts commited each cycle
system.switch_cpus.commit.committed_per_cycle::underflows            0      0.00%      0.00% # Number of insts commited each cycle
system.switch_cpus.commit.committed_per_cycle::0   4453488626     70.09%     70.09% # Number of insts commited each cycle
system.switch_cpus.commit.committed_per_cycle::1    864648598     13.61%     83.69% # Number of insts commited each cycle
system.switch_cpus.commit.committed_per_cycle::2    356537170      5.61%     89.30% # Number of insts commited each cycle
system.switch_cpus.commit.committed_per_cycle::3    242147829      3.81%     93.12% # Number of insts commited each cycle
system.switch_cpus.commit.committed_per_cycle::4     68781590      1.08%     94.20% # Number of insts commited each cycle
system.switch_cpus.commit.committed_per_cycle::5     96343012      1.52%     95.71% # Number of insts commited each cycle
system.switch_cpus.commit.committed_per_cycle::6     31150734      0.49%     96.20% # Number of insts commited each cycle
system.switch_cpus.commit.committed_per_cycle::7     30637750      0.48%     96.69% # Number of insts commited each cycle
system.switch_cpus.commit.committed_per_cycle::8    210567760      3.31%    100.00% # Number of insts commited each cycle
system.switch_cpus.commit.committed_per_cycle::overflows            0      0.00%    100.00% # Number of insts commited each cycle
system.switch_cpus.commit.committed_per_cycle::min_value            0                       # Number of insts commited each cycle
system.switch_cpus.commit.committed_per_cycle::max_value            8                       # Number of insts commited each cycle
system.switch_cpus.commit.committed_per_cycle::total   6354303069                       # Number of insts commited each cycle
system.switch_cpus.commit.committedInsts   5146918579                       # Number of instructions committed
system.switch_cpus.commit.committedOps     5146918579                       # Number of ops (including micro ops) committed
system.switch_cpus.commit.swp_count                 0                       # Number of s/w prefetches committed
system.switch_cpus.commit.refs             1874851509                       # Number of memory references committed
system.switch_cpus.commit.loads            1107804907                       # Number of loads committed
system.switch_cpus.commit.membars            19845590                       # Number of memory barriers committed
system.switch_cpus.commit.branches          688618364                       # Number of branches committed
system.switch_cpus.commit.fp_insts            1807443                       # Number of committed floating point instructions.
system.switch_cpus.commit.int_insts        4846781812                       # Number of committed integer instructions.
system.switch_cpus.commit.function_calls     23413129                       # Number of function calls committed.
system.switch_cpus.commit.op_class_0::No_OpClass    149844576      2.91%      2.91% # Class of committed instruction
system.switch_cpus.commit.op_class_0::IntAlu   2835787701     55.10%     58.01% # Class of committed instruction
system.switch_cpus.commit.op_class_0::IntMult      1239957      0.02%     58.03% # Class of committed instruction
system.switch_cpus.commit.op_class_0::IntDiv            0      0.00%     58.03% # Class of committed instruction
system.switch_cpus.commit.op_class_0::FloatAdd       803643      0.02%     58.05% # Class of committed instruction
system.switch_cpus.commit.op_class_0::FloatCmp          525      0.00%     58.05% # Class of committed instruction
system.switch_cpus.commit.op_class_0::FloatCvt       299019      0.01%     58.05% # Class of committed instruction
system.switch_cpus.commit.op_class_0::FloatMult            7      0.00%     58.05% # Class of committed instruction
system.switch_cpus.commit.op_class_0::FloatDiv        99673      0.00%     58.06% # Class of committed instruction
system.switch_cpus.commit.op_class_0::FloatSqrt            0      0.00%     58.06% # Class of committed instruction
system.switch_cpus.commit.op_class_0::SimdAdd            0      0.00%     58.06% # Class of committed instruction
system.switch_cpus.commit.op_class_0::SimdAddAcc            0      0.00%     58.06% # Class of committed instruction
system.switch_cpus.commit.op_class_0::SimdAlu            0      0.00%     58.06% # Class of committed instruction
system.switch_cpus.commit.op_class_0::SimdCmp            0      0.00%     58.06% # Class of committed instruction
system.switch_cpus.commit.op_class_0::SimdCvt            0      0.00%     58.06% # Class of committed instruction
system.switch_cpus.commit.op_class_0::SimdMisc            0      0.00%     58.06% # Class of committed instruction
system.switch_cpus.commit.op_class_0::SimdMult            0      0.00%     58.06% # Class of committed instruction
system.switch_cpus.commit.op_class_0::SimdMultAcc            0      0.00%     58.06% # Class of committed instruction
system.switch_cpus.commit.op_class_0::SimdShift            0      0.00%     58.06% # Class of committed instruction
system.switch_cpus.commit.op_class_0::SimdShiftAcc            0      0.00%     58.06% # Class of committed instruction
system.switch_cpus.commit.op_class_0::SimdSqrt            0      0.00%     58.06% # Class of committed instruction
system.switch_cpus.commit.op_class_0::SimdFloatAdd            0      0.00%     58.06% # Class of committed instruction
system.switch_cpus.commit.op_class_0::SimdFloatAlu            0      0.00%     58.06% # Class of committed instruction
system.switch_cpus.commit.op_class_0::SimdFloatCmp            0      0.00%     58.06% # Class of committed instruction
system.switch_cpus.commit.op_class_0::SimdFloatCvt            0      0.00%     58.06% # Class of committed instruction
system.switch_cpus.commit.op_class_0::SimdFloatDiv            0      0.00%     58.06% # Class of committed instruction
system.switch_cpus.commit.op_class_0::SimdFloatMisc            0      0.00%     58.06% # Class of committed instruction
system.switch_cpus.commit.op_class_0::SimdFloatMult            0      0.00%     58.06% # Class of committed instruction
system.switch_cpus.commit.op_class_0::SimdFloatMultAcc            0      0.00%     58.06% # Class of committed instruction
system.switch_cpus.commit.op_class_0::SimdFloatSqrt            0      0.00%     58.06% # Class of committed instruction
system.switch_cpus.commit.op_class_0::MemRead   1127650497     21.91%     79.96% # Class of committed instruction
system.switch_cpus.commit.op_class_0::MemWrite    767061340     14.90%     94.87% # Class of committed instruction
system.switch_cpus.commit.op_class_0::IprAccess    264131641      5.13%    100.00% # Class of committed instruction
system.switch_cpus.commit.op_class_0::InstPrefetch            0      0.00%    100.00% # Class of committed instruction
system.switch_cpus.commit.op_class_0::total   5146918579                       # Class of committed instruction
system.switch_cpus.commit.bw_lim_events     210567760                       # number cycles where commit BW limit reached
system.switch_cpus.rob.rob_reads          12358959419                       # The number of ROB reads
system.switch_cpus.rob.rob_writes         12925321343                       # The number of ROB writes
system.switch_cpus.timesIdled                 1420313                       # Number of times that the entire CPU went into an idle state and unscheduled itself
system.switch_cpus.idleCycles                71371387                       # Total number of cycles that the CPU has spent unscheduled due to idling
system.switch_cpus.quiesceCycles              2904105                       # Total number of cycles that CPU has spent quiesced or waiting for an interrupt
system.switch_cpus.committedInsts          4997273350                       # Number of Instructions Simulated
system.switch_cpus.committedOps            4997273350                       # Number of Ops (including micro ops) Simulated
system.switch_cpus.cpi                       1.322875                       # CPI: Cycles Per Instruction
system.switch_cpus.cpi_total                 1.322875                       # CPI: Total CPI of All Threads
system.switch_cpus.ipc                       0.755930                       # IPC: Instructions Per Cycle
system.switch_cpus.ipc_total                 0.755930                       # IPC: Total IPC of All Threads
system.switch_cpus.int_regfile_reads       7599205062                       # number of integer regfile reads
system.switch_cpus.int_regfile_writes      4074097676                       # number of integer regfile writes
system.switch_cpus.fp_regfile_reads           1053011                       # number of floating regfile reads
system.switch_cpus.fp_regfile_writes          1001532                       # number of floating regfile writes
system.switch_cpus.misc_regfile_reads       269003493                       # number of misc regfile reads
system.switch_cpus.misc_regfile_writes      211534344                       # number of misc regfile writes
system.tol2bus.trans_dist::ReadReq            9959691                       # Transaction distribution
system.tol2bus.trans_dist::ReadResp           9959505                       # Transaction distribution
system.tol2bus.trans_dist::WriteReq              5033                       # Transaction distribution
system.tol2bus.trans_dist::WriteResp             5033                       # Transaction distribution
system.tol2bus.trans_dist::Writeback          4158129                       # Transaction distribution
system.tol2bus.trans_dist::WriteInvalidateReq       128863                       # Transaction distribution
system.tol2bus.trans_dist::UpgradeReq            1075                       # Transaction distribution
system.tol2bus.trans_dist::SCUpgradeReq             4                       # Transaction distribution
system.tol2bus.trans_dist::UpgradeResp           1079                       # Transaction distribution
system.tol2bus.trans_dist::ReadExReq          1816037                       # Transaction distribution
system.tol2bus.trans_dist::ReadExResp         1816037                       # Transaction distribution
system.tol2bus.pkt_count_system.cpu.icache.mem_side::system.l2.cpu_side      7925618                       # Packet count per connected master and slave (bytes)
system.tol2bus.pkt_count_system.cpu.dcache.mem_side::system.l2.cpu_side     19794665                       # Packet count per connected master and slave (bytes)
system.tol2bus.pkt_count::total              27720283                       # Packet count per connected master and slave (bytes)
system.tol2bus.pkt_size_system.cpu.icache.mem_side::system.l2.cpu_side    253585280                       # Cumulative packet size per connected master and slave (bytes)
system.tol2bus.pkt_size_system.cpu.dcache.mem_side::system.l2.cpu_side    766057626                       # Cumulative packet size per connected master and slave (bytes)
system.tol2bus.pkt_size::total             1019642906                       # Cumulative packet size per connected master and slave (bytes)
system.tol2bus.snoops                          130279                       # Total snoops (count)
system.tol2bus.snoop_fanout::samples         16068832                       # Request fanout histogram
system.tol2bus.snoop_fanout::mean            1.008036                       # Request fanout histogram
system.tol2bus.snoop_fanout::stdev           0.089281                       # Request fanout histogram
system.tol2bus.snoop_fanout::underflows             0      0.00%      0.00% # Request fanout histogram
system.tol2bus.snoop_fanout::0                      0      0.00%      0.00% # Request fanout histogram
system.tol2bus.snoop_fanout::1               15939707     99.20%     99.20% # Request fanout histogram
system.tol2bus.snoop_fanout::2                 129125      0.80%    100.00% # Request fanout histogram
system.tol2bus.snoop_fanout::overflows              0      0.00%    100.00% # Request fanout histogram
system.tol2bus.snoop_fanout::min_value              1                       # Request fanout histogram
system.tol2bus.snoop_fanout::max_value              2                       # Request fanout histogram
system.tol2bus.snoop_fanout::total           16068832                       # Request fanout histogram
system.tol2bus.reqLayer0.occupancy        12130501994                       # Layer occupancy (ticks)
system.tol2bus.reqLayer0.utilization              0.4                       # Layer utilization (%)
system.tol2bus.snoopLayer0.occupancy           114000                       # Layer occupancy (ticks)
system.tol2bus.snoopLayer0.utilization            0.0                       # Layer utilization (%)
system.tol2bus.respLayer0.occupancy        6082920145                       # Layer occupancy (ticks)
system.tol2bus.respLayer0.utilization             0.2                       # Layer utilization (%)
system.tol2bus.respLayer1.occupancy       12227485334                       # Layer occupancy (ticks)
system.tol2bus.respLayer1.utilization             0.4                       # Layer utilization (%)
system.tsunami.ethernet.descDMAReads                0                       # Number of descriptors the device read w/ DMA
system.tsunami.ethernet.descDMAWrites               0                       # Number of descriptors the device wrote w/ DMA
system.tsunami.ethernet.descDmaReadBytes            0                       # number of descriptor bytes read w/ DMA
system.tsunami.ethernet.descDmaWriteBytes            0                       # number of descriptor bytes write w/ DMA
system.tsunami.ethernet.postedSwi                   0                       # number of software interrupts posted to CPU
system.tsunami.ethernet.coalescedSwi              nan                       # average number of Swi's coalesced into each post
system.tsunami.ethernet.totalSwi                    0                       # total number of Swi written to ISR
system.tsunami.ethernet.postedRxIdle                0                       # number of rxIdle interrupts posted to CPU
system.tsunami.ethernet.coalescedRxIdle           nan                       # average number of RxIdle's coalesced into each post
system.tsunami.ethernet.totalRxIdle                 0                       # total number of RxIdle written to ISR
system.tsunami.ethernet.postedRxOk                  0                       # number of RxOk interrupts posted to CPU
system.tsunami.ethernet.coalescedRxOk             nan                       # average number of RxOk's coalesced into each post
system.tsunami.ethernet.totalRxOk                   0                       # total number of RxOk written to ISR
system.tsunami.ethernet.postedRxDesc                0                       # number of RxDesc interrupts posted to CPU
system.tsunami.ethernet.coalescedRxDesc           nan                       # average number of RxDesc's coalesced into each post
system.tsunami.ethernet.totalRxDesc                 0                       # total number of RxDesc written to ISR
system.tsunami.ethernet.postedTxOk                  0                       # number of TxOk interrupts posted to CPU
system.tsunami.ethernet.coalescedTxOk             nan                       # average number of TxOk's coalesced into each post
system.tsunami.ethernet.totalTxOk                   0                       # total number of TxOk written to ISR
system.tsunami.ethernet.postedTxIdle                0                       # number of TxIdle interrupts posted to CPU
system.tsunami.ethernet.coalescedTxIdle           nan                       # average number of TxIdle's coalesced into each post
system.tsunami.ethernet.totalTxIdle                 0                       # total number of TxIdle written to ISR
system.tsunami.ethernet.postedTxDesc                0                       # number of TxDesc interrupts posted to CPU
system.tsunami.ethernet.coalescedTxDesc           nan                       # average number of TxDesc's coalesced into each post
system.tsunami.ethernet.totalTxDesc                 0                       # total number of TxDesc written to ISR
system.tsunami.ethernet.postedRxOrn                 0                       # number of RxOrn posted to CPU
system.tsunami.ethernet.coalescedRxOrn            nan                       # average number of RxOrn's coalesced into each post
system.tsunami.ethernet.totalRxOrn                  0                       # total number of RxOrn written to ISR
system.tsunami.ethernet.coalescedTotal            nan                       # average number of interrupts coalesced into each post
system.tsunami.ethernet.postedInterrupts            0                       # number of posts to CPU
system.tsunami.ethernet.droppedPackets              0                       # number of packets dropped
system.switch_cpus.kern.inst.arm                    0                       # number of arm instructions executed
system.switch_cpus.kern.inst.quiesce                0                       # number of quiesce instructions executed
system.switch_cpus.kern.inst.hwrei                  0                       # number of hwrei instructions executed
system.switch_cpus.kern.mode_switch::kernel            0                       # number of protection mode switches
system.switch_cpus.kern.mode_switch::user            0                       # number of protection mode switches
system.switch_cpus.kern.mode_switch::idle            0                       # number of protection mode switches
system.switch_cpus.kern.mode_good::kernel            0                      
system.switch_cpus.kern.mode_good::user             0                      
system.switch_cpus.kern.mode_good::idle             0                      
system.switch_cpus.kern.mode_switch_good::kernel          nan                       # fraction of useful protection mode switches
system.switch_cpus.kern.mode_switch_good::user          nan                       # fraction of useful protection mode switches
system.switch_cpus.kern.mode_switch_good::idle          nan                       # fraction of useful protection mode switches
system.switch_cpus.kern.mode_switch_good::total          nan                       # fraction of useful protection mode switches
system.switch_cpus.kern.mode_ticks::kernel            0                       # number of ticks spent at the given mode
system.switch_cpus.kern.mode_ticks::user            0                       # number of ticks spent at the given mode
system.switch_cpus.kern.mode_ticks::idle            0                       # number of ticks spent at the given mode
system.switch_cpus.kern.swap_context                0                       # number of times the context was actually changed

---------- End Simulation Statistics   ----------
