
---------- Begin Simulation Statistics ----------
sim_seconds                                  0.000781                       # Number of seconds simulated
sim_ticks                                   780918500                       # Number of ticks simulated
final_tick                               2255222414000                       # Number of ticks from beginning of simulation (restored from checkpoints and never reset)
sim_freq                                 1000000000000                       # Frequency of simulated ticks
host_inst_rate                               36363636                       # Simulator instruction rate (inst/s)
host_op_rate                                 36363539                       # Simulator op (including micro ops) rate (op/s)
host_tick_rate                              289803280                       # Simulator tick rate (ticks/s)
host_mem_usage                                 728972                       # Number of bytes of host memory used
host_seconds                                     2.69                       # Real time elapsed on the host
sim_insts                                    97986787                       # Number of instructions simulated
sim_ops                                      97986787                       # Number of ops (including micro ops) simulated
system.voltage_domain.voltage                       1                       # Voltage in Volts
system.clk_domain.clock                          1000                       # Clock period in ticks
system.mem_ctrls.bytes_read::switch_cpus.inst       311680                       # Number of bytes read from this memory
system.mem_ctrls.bytes_read::switch_cpus.data       176960                       # Number of bytes read from this memory
system.mem_ctrls.bytes_read::total             488640                       # Number of bytes read from this memory
system.mem_ctrls.bytes_inst_read::switch_cpus.inst       311680                       # Number of instructions bytes read from this memory
system.mem_ctrls.bytes_inst_read::total        311680                       # Number of instructions bytes read from this memory
system.mem_ctrls.bytes_written::writebacks        63104                       # Number of bytes written to this memory
system.mem_ctrls.bytes_written::total           63104                       # Number of bytes written to this memory
system.mem_ctrls.num_reads::switch_cpus.inst         4870                       # Number of read requests responded to by this memory
system.mem_ctrls.num_reads::switch_cpus.data         2765                       # Number of read requests responded to by this memory
system.mem_ctrls.num_reads::total                7635                       # Number of read requests responded to by this memory
system.mem_ctrls.num_writes::writebacks           986                       # Number of write requests responded to by this memory
system.mem_ctrls.num_writes::total                986                       # Number of write requests responded to by this memory
system.mem_ctrls.bw_read::switch_cpus.inst    399119754                       # Total read bandwidth from this memory (bytes/s)
system.mem_ctrls.bw_read::switch_cpus.data    226604953                       # Total read bandwidth from this memory (bytes/s)
system.mem_ctrls.bw_read::total             625724708                       # Total read bandwidth from this memory (bytes/s)
system.mem_ctrls.bw_inst_read::switch_cpus.inst    399119754                       # Instruction read bandwidth from this memory (bytes/s)
system.mem_ctrls.bw_inst_read::total        399119754                       # Instruction read bandwidth from this memory (bytes/s)
system.mem_ctrls.bw_write::writebacks        80807408                       # Write bandwidth from this memory (bytes/s)
system.mem_ctrls.bw_write::total             80807408                       # Write bandwidth from this memory (bytes/s)
system.mem_ctrls.bw_total::writebacks        80807408                       # Total bandwidth to/from this memory (bytes/s)
system.mem_ctrls.bw_total::switch_cpus.inst    399119754                       # Total bandwidth to/from this memory (bytes/s)
system.mem_ctrls.bw_total::switch_cpus.data    226604953                       # Total bandwidth to/from this memory (bytes/s)
system.mem_ctrls.bw_total::total            706532116                       # Total bandwidth to/from this memory (bytes/s)
system.mem_ctrls.readReqs                        7636                       # Number of read requests accepted
system.mem_ctrls.writeReqs                        986                       # Number of write requests accepted
system.mem_ctrls.readBursts                      7636                       # Number of DRAM read bursts, including those serviced by the write queue
system.mem_ctrls.writeBursts                      986                       # Number of DRAM write bursts, including those merged in the write queue
system.mem_ctrls.bytesReadDRAM                 485376                       # Total number of bytes read from DRAM
system.mem_ctrls.bytesReadWrQ                    3328                       # Total number of bytes read from write queue
system.mem_ctrls.bytesWritten                   61824                       # Total number of bytes written to DRAM
system.mem_ctrls.bytesReadSys                  488704                       # Total read bytes from the system interface side
system.mem_ctrls.bytesWrittenSys                63104                       # Total written bytes from the system interface side
system.mem_ctrls.servicedByWrQ                     52                       # Number of DRAM read bursts serviced by the write queue
system.mem_ctrls.mergedWrBursts                     1                       # Number of DRAM write bursts merged with an existing one
system.mem_ctrls.neitherReadNorWriteReqs            5                       # Number of requests that are neither read nor write
system.mem_ctrls.perBankRdBursts::0               855                       # Per bank write bursts
system.mem_ctrls.perBankRdBursts::1               363                       # Per bank write bursts
system.mem_ctrls.perBankRdBursts::2               380                       # Per bank write bursts
system.mem_ctrls.perBankRdBursts::3               268                       # Per bank write bursts
system.mem_ctrls.perBankRdBursts::4               331                       # Per bank write bursts
system.mem_ctrls.perBankRdBursts::5               376                       # Per bank write bursts
system.mem_ctrls.perBankRdBursts::6               352                       # Per bank write bursts
system.mem_ctrls.perBankRdBursts::7               456                       # Per bank write bursts
system.mem_ctrls.perBankRdBursts::8               660                       # Per bank write bursts
system.mem_ctrls.perBankRdBursts::9               433                       # Per bank write bursts
system.mem_ctrls.perBankRdBursts::10              543                       # Per bank write bursts
system.mem_ctrls.perBankRdBursts::11              639                       # Per bank write bursts
system.mem_ctrls.perBankRdBursts::12              603                       # Per bank write bursts
system.mem_ctrls.perBankRdBursts::13              740                       # Per bank write bursts
system.mem_ctrls.perBankRdBursts::14              261                       # Per bank write bursts
system.mem_ctrls.perBankRdBursts::15              324                       # Per bank write bursts
system.mem_ctrls.perBankWrBursts::0               142                       # Per bank write bursts
system.mem_ctrls.perBankWrBursts::1                45                       # Per bank write bursts
system.mem_ctrls.perBankWrBursts::2                33                       # Per bank write bursts
system.mem_ctrls.perBankWrBursts::3                52                       # Per bank write bursts
system.mem_ctrls.perBankWrBursts::4                81                       # Per bank write bursts
system.mem_ctrls.perBankWrBursts::5                80                       # Per bank write bursts
system.mem_ctrls.perBankWrBursts::6               102                       # Per bank write bursts
system.mem_ctrls.perBankWrBursts::7                39                       # Per bank write bursts
system.mem_ctrls.perBankWrBursts::8                51                       # Per bank write bursts
system.mem_ctrls.perBankWrBursts::9                29                       # Per bank write bursts
system.mem_ctrls.perBankWrBursts::10               22                       # Per bank write bursts
system.mem_ctrls.perBankWrBursts::11               82                       # Per bank write bursts
system.mem_ctrls.perBankWrBursts::12               43                       # Per bank write bursts
system.mem_ctrls.perBankWrBursts::13               80                       # Per bank write bursts
system.mem_ctrls.perBankWrBursts::14               49                       # Per bank write bursts
system.mem_ctrls.perBankWrBursts::15               36                       # Per bank write bursts
system.mem_ctrls.numRdRetry                         0                       # Number of times read queue was full causing retry
system.mem_ctrls.numWrRetry                         0                       # Number of times write queue was full causing retry
system.mem_ctrls.totGap                     780874000                       # Total gap between requests
system.mem_ctrls.readPktSize::0                     0                       # Read request sizes (log2)
system.mem_ctrls.readPktSize::1                     0                       # Read request sizes (log2)
system.mem_ctrls.readPktSize::2                     0                       # Read request sizes (log2)
system.mem_ctrls.readPktSize::3                     0                       # Read request sizes (log2)
system.mem_ctrls.readPktSize::4                     0                       # Read request sizes (log2)
system.mem_ctrls.readPktSize::5                     0                       # Read request sizes (log2)
system.mem_ctrls.readPktSize::6                  7636                       # Read request sizes (log2)
system.mem_ctrls.writePktSize::0                    0                       # Write request sizes (log2)
system.mem_ctrls.writePktSize::1                    0                       # Write request sizes (log2)
system.mem_ctrls.writePktSize::2                    0                       # Write request sizes (log2)
system.mem_ctrls.writePktSize::3                    0                       # Write request sizes (log2)
system.mem_ctrls.writePktSize::4                    0                       # Write request sizes (log2)
system.mem_ctrls.writePktSize::5                    0                       # Write request sizes (log2)
system.mem_ctrls.writePktSize::6                  986                       # Write request sizes (log2)
system.mem_ctrls.rdQLenPdf::0                    5378                       # What read queue length does an incoming req see
system.mem_ctrls.rdQLenPdf::1                    1720                       # What read queue length does an incoming req see
system.mem_ctrls.rdQLenPdf::2                     392                       # What read queue length does an incoming req see
system.mem_ctrls.rdQLenPdf::3                      88                       # What read queue length does an incoming req see
system.mem_ctrls.rdQLenPdf::4                       6                       # What read queue length does an incoming req see
system.mem_ctrls.rdQLenPdf::5                       0                       # What read queue length does an incoming req see
system.mem_ctrls.rdQLenPdf::6                       0                       # What read queue length does an incoming req see
system.mem_ctrls.rdQLenPdf::7                       0                       # What read queue length does an incoming req see
system.mem_ctrls.rdQLenPdf::8                       0                       # What read queue length does an incoming req see
system.mem_ctrls.rdQLenPdf::9                       0                       # What read queue length does an incoming req see
system.mem_ctrls.rdQLenPdf::10                      0                       # What read queue length does an incoming req see
system.mem_ctrls.rdQLenPdf::11                      0                       # What read queue length does an incoming req see
system.mem_ctrls.rdQLenPdf::12                      0                       # What read queue length does an incoming req see
system.mem_ctrls.rdQLenPdf::13                      0                       # What read queue length does an incoming req see
system.mem_ctrls.rdQLenPdf::14                      0                       # What read queue length does an incoming req see
system.mem_ctrls.rdQLenPdf::15                      0                       # What read queue length does an incoming req see
system.mem_ctrls.rdQLenPdf::16                      0                       # What read queue length does an incoming req see
system.mem_ctrls.rdQLenPdf::17                      0                       # What read queue length does an incoming req see
system.mem_ctrls.rdQLenPdf::18                      0                       # What read queue length does an incoming req see
system.mem_ctrls.rdQLenPdf::19                      0                       # What read queue length does an incoming req see
system.mem_ctrls.rdQLenPdf::20                      0                       # What read queue length does an incoming req see
system.mem_ctrls.rdQLenPdf::21                      0                       # What read queue length does an incoming req see
system.mem_ctrls.rdQLenPdf::22                      0                       # What read queue length does an incoming req see
system.mem_ctrls.rdQLenPdf::23                      0                       # What read queue length does an incoming req see
system.mem_ctrls.rdQLenPdf::24                      0                       # What read queue length does an incoming req see
system.mem_ctrls.rdQLenPdf::25                      0                       # What read queue length does an incoming req see
system.mem_ctrls.rdQLenPdf::26                      0                       # What read queue length does an incoming req see
system.mem_ctrls.rdQLenPdf::27                      0                       # What read queue length does an incoming req see
system.mem_ctrls.rdQLenPdf::28                      0                       # What read queue length does an incoming req see
system.mem_ctrls.rdQLenPdf::29                      0                       # What read queue length does an incoming req see
system.mem_ctrls.rdQLenPdf::30                      0                       # What read queue length does an incoming req see
system.mem_ctrls.rdQLenPdf::31                      0                       # What read queue length does an incoming req see
system.mem_ctrls.wrQLenPdf::0                       1                       # What write queue length does an incoming req see
system.mem_ctrls.wrQLenPdf::1                       1                       # What write queue length does an incoming req see
system.mem_ctrls.wrQLenPdf::2                       1                       # What write queue length does an incoming req see
system.mem_ctrls.wrQLenPdf::3                       1                       # What write queue length does an incoming req see
system.mem_ctrls.wrQLenPdf::4                       1                       # What write queue length does an incoming req see
system.mem_ctrls.wrQLenPdf::5                       1                       # What write queue length does an incoming req see
system.mem_ctrls.wrQLenPdf::6                       1                       # What write queue length does an incoming req see
system.mem_ctrls.wrQLenPdf::7                       1                       # What write queue length does an incoming req see
system.mem_ctrls.wrQLenPdf::8                       1                       # What write queue length does an incoming req see
system.mem_ctrls.wrQLenPdf::9                       1                       # What write queue length does an incoming req see
system.mem_ctrls.wrQLenPdf::10                      1                       # What write queue length does an incoming req see
system.mem_ctrls.wrQLenPdf::11                      1                       # What write queue length does an incoming req see
system.mem_ctrls.wrQLenPdf::12                      1                       # What write queue length does an incoming req see
system.mem_ctrls.wrQLenPdf::13                      1                       # What write queue length does an incoming req see
system.mem_ctrls.wrQLenPdf::14                      1                       # What write queue length does an incoming req see
system.mem_ctrls.wrQLenPdf::15                     24                       # What write queue length does an incoming req see
system.mem_ctrls.wrQLenPdf::16                     24                       # What write queue length does an incoming req see
system.mem_ctrls.wrQLenPdf::17                     51                       # What write queue length does an incoming req see
system.mem_ctrls.wrQLenPdf::18                     55                       # What write queue length does an incoming req see
system.mem_ctrls.wrQLenPdf::19                     57                       # What write queue length does an incoming req see
system.mem_ctrls.wrQLenPdf::20                     56                       # What write queue length does an incoming req see
system.mem_ctrls.wrQLenPdf::21                     57                       # What write queue length does an incoming req see
system.mem_ctrls.wrQLenPdf::22                     58                       # What write queue length does an incoming req see
system.mem_ctrls.wrQLenPdf::23                     57                       # What write queue length does an incoming req see
system.mem_ctrls.wrQLenPdf::24                     57                       # What write queue length does an incoming req see
system.mem_ctrls.wrQLenPdf::25                     60                       # What write queue length does an incoming req see
system.mem_ctrls.wrQLenPdf::26                     60                       # What write queue length does an incoming req see
system.mem_ctrls.wrQLenPdf::27                     61                       # What write queue length does an incoming req see
system.mem_ctrls.wrQLenPdf::28                     59                       # What write queue length does an incoming req see
system.mem_ctrls.wrQLenPdf::29                     62                       # What write queue length does an incoming req see
system.mem_ctrls.wrQLenPdf::30                     58                       # What write queue length does an incoming req see
system.mem_ctrls.wrQLenPdf::31                     57                       # What write queue length does an incoming req see
system.mem_ctrls.wrQLenPdf::32                     57                       # What write queue length does an incoming req see
system.mem_ctrls.wrQLenPdf::33                      0                       # What write queue length does an incoming req see
system.mem_ctrls.wrQLenPdf::34                      0                       # What write queue length does an incoming req see
system.mem_ctrls.wrQLenPdf::35                      0                       # What write queue length does an incoming req see
system.mem_ctrls.wrQLenPdf::36                      0                       # What write queue length does an incoming req see
system.mem_ctrls.wrQLenPdf::37                      0                       # What write queue length does an incoming req see
system.mem_ctrls.wrQLenPdf::38                      0                       # What write queue length does an incoming req see
system.mem_ctrls.wrQLenPdf::39                      0                       # What write queue length does an incoming req see
system.mem_ctrls.wrQLenPdf::40                      0                       # What write queue length does an incoming req see
system.mem_ctrls.wrQLenPdf::41                      0                       # What write queue length does an incoming req see
system.mem_ctrls.wrQLenPdf::42                      0                       # What write queue length does an incoming req see
system.mem_ctrls.wrQLenPdf::43                      0                       # What write queue length does an incoming req see
system.mem_ctrls.wrQLenPdf::44                      0                       # What write queue length does an incoming req see
system.mem_ctrls.wrQLenPdf::45                      0                       # What write queue length does an incoming req see
system.mem_ctrls.wrQLenPdf::46                      0                       # What write queue length does an incoming req see
system.mem_ctrls.wrQLenPdf::47                      0                       # What write queue length does an incoming req see
system.mem_ctrls.wrQLenPdf::48                      0                       # What write queue length does an incoming req see
system.mem_ctrls.wrQLenPdf::49                      0                       # What write queue length does an incoming req see
system.mem_ctrls.wrQLenPdf::50                      0                       # What write queue length does an incoming req see
system.mem_ctrls.wrQLenPdf::51                      0                       # What write queue length does an incoming req see
system.mem_ctrls.wrQLenPdf::52                      0                       # What write queue length does an incoming req see
system.mem_ctrls.wrQLenPdf::53                      0                       # What write queue length does an incoming req see
system.mem_ctrls.wrQLenPdf::54                      0                       # What write queue length does an incoming req see
system.mem_ctrls.wrQLenPdf::55                      0                       # What write queue length does an incoming req see
system.mem_ctrls.wrQLenPdf::56                      0                       # What write queue length does an incoming req see
system.mem_ctrls.wrQLenPdf::57                      0                       # What write queue length does an incoming req see
system.mem_ctrls.wrQLenPdf::58                      0                       # What write queue length does an incoming req see
system.mem_ctrls.wrQLenPdf::59                      0                       # What write queue length does an incoming req see
system.mem_ctrls.wrQLenPdf::60                      0                       # What write queue length does an incoming req see
system.mem_ctrls.wrQLenPdf::61                      0                       # What write queue length does an incoming req see
system.mem_ctrls.wrQLenPdf::62                      0                       # What write queue length does an incoming req see
system.mem_ctrls.wrQLenPdf::63                      0                       # What write queue length does an incoming req see
system.mem_ctrls.bytesPerActivate::samples         2892                       # Bytes accessed per row activation
system.mem_ctrls.bytesPerActivate::mean    188.702628                       # Bytes accessed per row activation
system.mem_ctrls.bytesPerActivate::gmean   126.943692                       # Bytes accessed per row activation
system.mem_ctrls.bytesPerActivate::stdev   214.608309                       # Bytes accessed per row activation
system.mem_ctrls.bytesPerActivate::0-127         1390     48.06%     48.06% # Bytes accessed per row activation
system.mem_ctrls.bytesPerActivate::128-255          853     29.50%     77.56% # Bytes accessed per row activation
system.mem_ctrls.bytesPerActivate::256-383          266      9.20%     86.76% # Bytes accessed per row activation
system.mem_ctrls.bytesPerActivate::384-511          131      4.53%     91.29% # Bytes accessed per row activation
system.mem_ctrls.bytesPerActivate::512-639           73      2.52%     93.81% # Bytes accessed per row activation
system.mem_ctrls.bytesPerActivate::640-767           42      1.45%     95.26% # Bytes accessed per row activation
system.mem_ctrls.bytesPerActivate::768-895           30      1.04%     96.30% # Bytes accessed per row activation
system.mem_ctrls.bytesPerActivate::896-1023           27      0.93%     97.23% # Bytes accessed per row activation
system.mem_ctrls.bytesPerActivate::1024-1151           80      2.77%    100.00% # Bytes accessed per row activation
system.mem_ctrls.bytesPerActivate::total         2892                       # Bytes accessed per row activation
system.mem_ctrls.rdPerTurnAround::samples           57                       # Reads before turning the bus around for writes
system.mem_ctrls.rdPerTurnAround::mean     132.385965                       # Reads before turning the bus around for writes
system.mem_ctrls.rdPerTurnAround::gmean    116.924099                       # Reads before turning the bus around for writes
system.mem_ctrls.rdPerTurnAround::stdev     61.397346                       # Reads before turning the bus around for writes
system.mem_ctrls.rdPerTurnAround::16-31             2      3.51%      3.51% # Reads before turning the bus around for writes
system.mem_ctrls.rdPerTurnAround::32-47             3      5.26%      8.77% # Reads before turning the bus around for writes
system.mem_ctrls.rdPerTurnAround::48-63             2      3.51%     12.28% # Reads before turning the bus around for writes
system.mem_ctrls.rdPerTurnAround::64-79             3      5.26%     17.54% # Reads before turning the bus around for writes
system.mem_ctrls.rdPerTurnAround::80-95             4      7.02%     24.56% # Reads before turning the bus around for writes
system.mem_ctrls.rdPerTurnAround::96-111            5      8.77%     33.33% # Reads before turning the bus around for writes
system.mem_ctrls.rdPerTurnAround::112-127            9     15.79%     49.12% # Reads before turning the bus around for writes
system.mem_ctrls.rdPerTurnAround::128-143           10     17.54%     66.67% # Reads before turning the bus around for writes
system.mem_ctrls.rdPerTurnAround::144-159            6     10.53%     77.19% # Reads before turning the bus around for writes
system.mem_ctrls.rdPerTurnAround::160-175            3      5.26%     82.46% # Reads before turning the bus around for writes
system.mem_ctrls.rdPerTurnAround::176-191            2      3.51%     85.96% # Reads before turning the bus around for writes
system.mem_ctrls.rdPerTurnAround::192-207            2      3.51%     89.47% # Reads before turning the bus around for writes
system.mem_ctrls.rdPerTurnAround::208-223            2      3.51%     92.98% # Reads before turning the bus around for writes
system.mem_ctrls.rdPerTurnAround::224-239            1      1.75%     94.74% # Reads before turning the bus around for writes
system.mem_ctrls.rdPerTurnAround::272-287            2      3.51%     98.25% # Reads before turning the bus around for writes
system.mem_ctrls.rdPerTurnAround::304-319            1      1.75%    100.00% # Reads before turning the bus around for writes
system.mem_ctrls.rdPerTurnAround::total            57                       # Reads before turning the bus around for writes
system.mem_ctrls.wrPerTurnAround::samples           57                       # Writes before turning the bus around for reads
system.mem_ctrls.wrPerTurnAround::mean      16.947368                       # Writes before turning the bus around for reads
system.mem_ctrls.wrPerTurnAround::gmean     16.907714                       # Writes before turning the bus around for reads
system.mem_ctrls.wrPerTurnAround::stdev      1.186547                       # Writes before turning the bus around for reads
system.mem_ctrls.wrPerTurnAround::16               33     57.89%     57.89% # Writes before turning the bus around for reads
system.mem_ctrls.wrPerTurnAround::17                1      1.75%     59.65% # Writes before turning the bus around for reads
system.mem_ctrls.wrPerTurnAround::18               17     29.82%     89.47% # Writes before turning the bus around for reads
system.mem_ctrls.wrPerTurnAround::19                5      8.77%     98.25% # Writes before turning the bus around for reads
system.mem_ctrls.wrPerTurnAround::20                1      1.75%    100.00% # Writes before turning the bus around for reads
system.mem_ctrls.wrPerTurnAround::total            57                       # Writes before turning the bus around for reads
system.mem_ctrls.totQLat                     91770500                       # Total ticks spent queuing
system.mem_ctrls.totMemAccLat               233970500                       # Total ticks spent from burst creation until serviced by the DRAM
system.mem_ctrls.totBusLat                   37920000                       # Total ticks spent in databus transfers
system.mem_ctrls.avgQLat                     12100.54                       # Average queueing delay per DRAM burst
system.mem_ctrls.avgBusLat                    5000.00                       # Average bus latency per DRAM burst
system.mem_ctrls.avgMemAccLat                30850.54                       # Average memory access latency per DRAM burst
system.mem_ctrls.avgRdBW                       621.55                       # Average DRAM read bandwidth in MiByte/s
system.mem_ctrls.avgWrBW                        79.17                       # Average achieved write bandwidth in MiByte/s
system.mem_ctrls.avgRdBWSys                    625.81                       # Average system read bandwidth in MiByte/s
system.mem_ctrls.avgWrBWSys                     80.81                       # Average system write bandwidth in MiByte/s
system.mem_ctrls.peakBW                      12800.00                       # Theoretical peak bandwidth in MiByte/s
system.mem_ctrls.busUtil                         5.47                       # Data bus utilization in percentage
system.mem_ctrls.busUtilRead                     4.86                       # Data bus utilization in percentage for reads
system.mem_ctrls.busUtilWrite                    0.62                       # Data bus utilization in percentage for writes
system.mem_ctrls.avgRdQLen                       1.29                       # Average read queue length when enqueuing
system.mem_ctrls.avgWrQLen                      24.40                       # Average write queue length when enqueuing
system.mem_ctrls.readRowHits                     5205                       # Number of row buffer hits during reads
system.mem_ctrls.writeRowHits                     447                       # Number of row buffer hits during writes
system.mem_ctrls.readRowHitRate                 68.63                       # Row buffer hit rate for reads
system.mem_ctrls.writeRowHitRate                45.38                       # Row buffer hit rate for writes
system.mem_ctrls.avgGap                      90567.62                       # Average gap between requests
system.mem_ctrls.pageHitRate                    65.96                       # Row buffer hit rate, read and write combined
system.mem_ctrls_0.actEnergy                  9707040                       # Energy for activate commands per rank (pJ)
system.mem_ctrls_0.preEnergy                  5296500                       # Energy for precharge commands per rank (pJ)
system.mem_ctrls_0.readEnergy                26309400                       # Energy for read commands per rank (pJ)
system.mem_ctrls_0.writeEnergy                3719520                       # Energy for write commands per rank (pJ)
system.mem_ctrls_0.refreshEnergy             50856000                       # Energy for refresh commands per rank (pJ)
system.mem_ctrls_0.actBackEnergy            482284125                       # Energy for active background per rank (pJ)
system.mem_ctrls_0.preBackEnergy             44274750                       # Energy for precharge background per rank (pJ)
system.mem_ctrls_0.totalEnergy              622447335                       # Total energy per rank (pJ)
system.mem_ctrls_0.averagePower            799.151781                       # Core power per rank (mW)
system.mem_ctrls_0.memoryStateTime::IDLE     71199750                       # Time in different power states
system.mem_ctrls_0.memoryStateTime::REF      26000000                       # Time in different power states
system.mem_ctrls_0.memoryStateTime::PRE_PDN            0                       # Time in different power states
system.mem_ctrls_0.memoryStateTime::ACT     681897750                       # Time in different power states
system.mem_ctrls_0.memoryStateTime::ACT_PDN            0                       # Time in different power states
system.mem_ctrls_1.actEnergy                 12156480                       # Energy for activate commands per rank (pJ)
system.mem_ctrls_1.preEnergy                  6633000                       # Energy for precharge commands per rank (pJ)
system.mem_ctrls_1.readEnergy                32666400                       # Energy for read commands per rank (pJ)
system.mem_ctrls_1.writeEnergy                2540160                       # Energy for write commands per rank (pJ)
system.mem_ctrls_1.refreshEnergy             50856000                       # Energy for refresh commands per rank (pJ)
system.mem_ctrls_1.actBackEnergy            507541680                       # Energy for active background per rank (pJ)
system.mem_ctrls_1.preBackEnergy             22119000                       # Energy for precharge background per rank (pJ)
system.mem_ctrls_1.totalEnergy              634512720                       # Total energy per rank (pJ)
system.mem_ctrls_1.averagePower            814.642367                       # Core power per rank (mW)
system.mem_ctrls_1.memoryStateTime::IDLE     33955250                       # Time in different power states
system.mem_ctrls_1.memoryStateTime::REF      26000000                       # Time in different power states
system.mem_ctrls_1.memoryStateTime::PRE_PDN            0                       # Time in different power states
system.mem_ctrls_1.memoryStateTime::ACT     718943500                       # Time in different power states
system.mem_ctrls_1.memoryStateTime::ACT_PDN            0                       # Time in different power states
system.cpu_voltage_domain.voltage                   1                       # Voltage in Volts
system.cpu_clk_domain.clock                       500                       # Clock period in ticks
system.cpu.dtb.fetch_hits                           0                       # ITB hits
system.cpu.dtb.fetch_misses                         0                       # ITB misses
system.cpu.dtb.fetch_acv                            0                       # ITB acv
system.cpu.dtb.fetch_accesses                       0                       # ITB accesses
system.cpu.dtb.read_hits                            0                       # DTB read hits
system.cpu.dtb.read_misses                          0                       # DTB read misses
system.cpu.dtb.read_acv                             0                       # DTB read access violations
system.cpu.dtb.read_accesses                        0                       # DTB read accesses
system.cpu.dtb.write_hits                           0                       # DTB write hits
system.cpu.dtb.write_misses                         0                       # DTB write misses
system.cpu.dtb.write_acv                            0                       # DTB write access violations
system.cpu.dtb.write_accesses                       0                       # DTB write accesses
system.cpu.dtb.data_hits                            0                       # DTB hits
system.cpu.dtb.data_misses                          0                       # DTB misses
system.cpu.dtb.data_acv                             0                       # DTB access violations
system.cpu.dtb.data_accesses                        0                       # DTB accesses
system.cpu.itb.fetch_hits                           0                       # ITB hits
system.cpu.itb.fetch_misses                         0                       # ITB misses
system.cpu.itb.fetch_acv                            0                       # ITB acv
system.cpu.itb.fetch_accesses                       0                       # ITB accesses
system.cpu.itb.read_hits                            0                       # DTB read hits
system.cpu.itb.read_misses                          0                       # DTB read misses
system.cpu.itb.read_acv                             0                       # DTB read access violations
system.cpu.itb.read_accesses                        0                       # DTB read accesses
system.cpu.itb.write_hits                           0                       # DTB write hits
system.cpu.itb.write_misses                         0                       # DTB write misses
system.cpu.itb.write_acv                            0                       # DTB write access violations
system.cpu.itb.write_accesses                       0                       # DTB write accesses
system.cpu.itb.data_hits                            0                       # DTB hits
system.cpu.itb.data_misses                          0                       # DTB misses
system.cpu.itb.data_acv                             0                       # DTB access violations
system.cpu.itb.data_accesses                        0                       # DTB accesses
system.cpu.numCycles                                0                       # number of cpu cycles simulated
system.cpu.numWorkItemsStarted                      0                       # number of work items this cpu started
system.cpu.numWorkItemsCompleted                    0                       # number of work items this cpu completed
system.cpu.committedInsts                           0                       # Number of instructions committed
system.cpu.committedOps                             0                       # Number of ops (including micro ops) committed
system.cpu.num_int_alu_accesses                     0                       # Number of integer alu accesses
system.cpu.num_fp_alu_accesses                      0                       # Number of float alu accesses
system.cpu.num_func_calls                           0                       # number of times a function call or return occured
system.cpu.num_conditional_control_insts            0                       # number of instructions that are conditional controls
system.cpu.num_int_insts                            0                       # number of integer instructions
system.cpu.num_fp_insts                             0                       # number of float instructions
system.cpu.num_int_register_reads                   0                       # number of times the integer registers were read
system.cpu.num_int_register_writes                  0                       # number of times the integer registers were written
system.cpu.num_fp_register_reads                    0                       # number of times the floating registers were read
system.cpu.num_fp_register_writes                   0                       # number of times the floating registers were written
system.cpu.num_mem_refs                             0                       # number of memory refs
system.cpu.num_load_insts                           0                       # Number of load instructions
system.cpu.num_store_insts                          0                       # Number of store instructions
system.cpu.num_idle_cycles                          0                       # Number of idle cycles
system.cpu.num_busy_cycles                          0                       # Number of busy cycles
system.cpu.not_idle_fraction                        1                       # Percentage of non-idle cycles
system.cpu.idle_fraction                            0                       # Percentage of idle cycles
system.cpu.op_class::No_OpClass                     0                       # Class of executed instruction
system.cpu.op_class::IntAlu                         0                       # Class of executed instruction
system.cpu.op_class::IntMult                        0                       # Class of executed instruction
system.cpu.op_class::IntDiv                         0                       # Class of executed instruction
system.cpu.op_class::FloatAdd                       0                       # Class of executed instruction
system.cpu.op_class::FloatCmp                       0                       # Class of executed instruction
system.cpu.op_class::FloatCvt                       0                       # Class of executed instruction
system.cpu.op_class::FloatMult                      0                       # Class of executed instruction
system.cpu.op_class::FloatDiv                       0                       # Class of executed instruction
system.cpu.op_class::FloatSqrt                      0                       # Class of executed instruction
system.cpu.op_class::SimdAdd                        0                       # Class of executed instruction
system.cpu.op_class::SimdAddAcc                     0                       # Class of executed instruction
system.cpu.op_class::SimdAlu                        0                       # Class of executed instruction
system.cpu.op_class::SimdCmp                        0                       # Class of executed instruction
system.cpu.op_class::SimdCvt                        0                       # Class of executed instruction
system.cpu.op_class::SimdMisc                       0                       # Class of executed instruction
system.cpu.op_class::SimdMult                       0                       # Class of executed instruction
system.cpu.op_class::SimdMultAcc                    0                       # Class of executed instruction
system.cpu.op_class::SimdShift                      0                       # Class of executed instruction
system.cpu.op_class::SimdShiftAcc                   0                       # Class of executed instruction
system.cpu.op_class::SimdSqrt                       0                       # Class of executed instruction
system.cpu.op_class::SimdFloatAdd                   0                       # Class of executed instruction
system.cpu.op_class::SimdFloatAlu                   0                       # Class of executed instruction
system.cpu.op_class::SimdFloatCmp                   0                       # Class of executed instruction
system.cpu.op_class::SimdFloatCvt                   0                       # Class of executed instruction
system.cpu.op_class::SimdFloatDiv                   0                       # Class of executed instruction
system.cpu.op_class::SimdFloatMisc                  0                       # Class of executed instruction
system.cpu.op_class::SimdFloatMult                  0                       # Class of executed instruction
system.cpu.op_class::SimdFloatMultAcc               0                       # Class of executed instruction
system.cpu.op_class::SimdFloatSqrt                  0                       # Class of executed instruction
system.cpu.op_class::MemRead                        0                       # Class of executed instruction
system.cpu.op_class::MemWrite                       0                       # Class of executed instruction
system.cpu.op_class::IprAccess                      0                       # Class of executed instruction
system.cpu.op_class::InstPrefetch                   0                       # Class of executed instruction
system.cpu.op_class::total                          0                       # Class of executed instruction
system.cpu.kern.inst.arm                            0                       # number of arm instructions executed
system.cpu.kern.inst.quiesce                        0                       # number of quiesce instructions executed
system.cpu.kern.inst.hwrei                       2781                       # number of hwrei instructions executed
system.cpu.kern.ipl_count::0                      635     49.15%     49.15% # number of times we switched to this ipl
system.cpu.kern.ipl_count::22                       1      0.08%     49.23% # number of times we switched to this ipl
system.cpu.kern.ipl_count::31                     656     50.77%    100.00% # number of times we switched to this ipl
system.cpu.kern.ipl_count::total                 1292                       # number of times we switched to this ipl
system.cpu.kern.ipl_good::0                       633     49.96%     49.96% # number of times we switched to this ipl from a different ipl
system.cpu.kern.ipl_good::22                        1      0.08%     50.04% # number of times we switched to this ipl from a different ipl
system.cpu.kern.ipl_good::31                      633     49.96%    100.00% # number of times we switched to this ipl from a different ipl
system.cpu.kern.ipl_good::total                  1267                       # number of times we switched to this ipl from a different ipl
system.cpu.kern.ipl_ticks::0                698463000     89.54%     89.54% # number of cycles we spent at this ipl
system.cpu.kern.ipl_ticks::22                 1331500      0.17%     89.71% # number of cycles we spent at this ipl
system.cpu.kern.ipl_ticks::31                80247500     10.29%    100.00% # number of cycles we spent at this ipl
system.cpu.kern.ipl_ticks::total            780042000                       # number of cycles we spent at this ipl
system.cpu.kern.ipl_used::0                  0.996850                       # fraction of swpipl calls that actually changed the ipl
system.cpu.kern.ipl_used::22                        1                       # fraction of swpipl calls that actually changed the ipl
system.cpu.kern.ipl_used::31                 0.964939                       # fraction of swpipl calls that actually changed the ipl
system.cpu.kern.ipl_used::total              0.980650                       # fraction of swpipl calls that actually changed the ipl
system.cpu.kern.syscall::2                          1      5.56%      5.56% # number of syscalls executed
system.cpu.kern.syscall::3                          2     11.11%     16.67% # number of syscalls executed
system.cpu.kern.syscall::6                          2     11.11%     27.78% # number of syscalls executed
system.cpu.kern.syscall::17                         1      5.56%     33.33% # number of syscalls executed
system.cpu.kern.syscall::19                         1      5.56%     38.89% # number of syscalls executed
system.cpu.kern.syscall::33                         1      5.56%     44.44% # number of syscalls executed
system.cpu.kern.syscall::45                         3     16.67%     61.11% # number of syscalls executed
system.cpu.kern.syscall::48                         1      5.56%     66.67% # number of syscalls executed
system.cpu.kern.syscall::59                         1      5.56%     72.22% # number of syscalls executed
system.cpu.kern.syscall::71                         4     22.22%     94.44% # number of syscalls executed
system.cpu.kern.syscall::74                         1      5.56%    100.00% # number of syscalls executed
system.cpu.kern.syscall::total                     18                       # number of syscalls executed
system.cpu.kern.callpal::swpctx                   118      8.10%      8.10% # number of callpals executed
system.cpu.kern.callpal::tbi                        6      0.41%      8.51% # number of callpals executed
system.cpu.kern.callpal::swpipl                  1107     75.98%     84.49% # number of callpals executed
system.cpu.kern.callpal::rdps                       3      0.21%     84.69% # number of callpals executed
system.cpu.kern.callpal::wrusp                      1      0.07%     84.76% # number of callpals executed
system.cpu.kern.callpal::rdusp                      1      0.07%     84.83% # number of callpals executed
system.cpu.kern.callpal::rti                      184     12.63%     97.46% # number of callpals executed
system.cpu.kern.callpal::callsys                   33      2.26%     99.73% # number of callpals executed
system.cpu.kern.callpal::imb                        4      0.27%    100.00% # number of callpals executed
system.cpu.kern.callpal::total                   1457                       # number of callpals executed
system.cpu.kern.mode_switch::kernel               302                       # number of protection mode switches
system.cpu.kern.mode_switch::user                 181                       # number of protection mode switches
system.cpu.kern.mode_switch::idle                   0                       # number of protection mode switches
system.cpu.kern.mode_good::kernel                 181                      
system.cpu.kern.mode_good::user                   181                      
system.cpu.kern.mode_good::idle                     0                      
system.cpu.kern.mode_switch_good::kernel     0.599338                       # fraction of useful protection mode switches
system.cpu.kern.mode_switch_good::user              1                       # fraction of useful protection mode switches
system.cpu.kern.mode_switch_good::idle            nan                       # fraction of useful protection mode switches
system.cpu.kern.mode_switch_good::total      0.749482                       # fraction of useful protection mode switches
system.cpu.kern.mode_ticks::kernel          538374000     69.02%     69.02% # number of ticks spent at the given mode
system.cpu.kern.mode_ticks::user            241661000     30.98%    100.00% # number of ticks spent at the given mode
system.cpu.kern.mode_ticks::idle                    0      0.00%    100.00% # number of ticks spent at the given mode
system.cpu.kern.swap_context                      118                       # number of times the context was actually changed
system.cpu.dcache.tags.replacements             18280                       # number of replacements
system.cpu.dcache.tags.tagsinuse                  512                       # Cycle average of tags in use
system.cpu.dcache.tags.total_refs              198180                       # Total number of references to valid blocks.
system.cpu.dcache.tags.sampled_refs             18280                       # Sample count of references to valid blocks.
system.cpu.dcache.tags.avg_refs             10.841357                       # Average number of references to valid blocks.
system.cpu.dcache.tags.warmup_cycle                 0                       # Cycle when the warmup percentage was hit.
system.cpu.dcache.tags.occ_blocks::cpu.data    29.061237                       # Average occupied blocks per requestor
system.cpu.dcache.tags.occ_blocks::switch_cpus.data   482.938763                       # Average occupied blocks per requestor
system.cpu.dcache.tags.occ_percent::cpu.data     0.056760                       # Average percentage of cache occupancy
system.cpu.dcache.tags.occ_percent::switch_cpus.data     0.943240                       # Average percentage of cache occupancy
system.cpu.dcache.tags.occ_percent::total            1                       # Average percentage of cache occupancy
system.cpu.dcache.tags.occ_task_id_blocks::1024          512                       # Occupied blocks per task id
system.cpu.dcache.tags.age_task_id_blocks_1024::0          428                       # Occupied blocks per task id
system.cpu.dcache.tags.age_task_id_blocks_1024::1           83                       # Occupied blocks per task id
system.cpu.dcache.tags.age_task_id_blocks_1024::2            1                       # Occupied blocks per task id
system.cpu.dcache.tags.occ_task_id_percent::1024            1                       # Percentage of cache occupancy per task id
system.cpu.dcache.tags.tag_accesses           1179160                       # Number of tag accesses
system.cpu.dcache.tags.data_accesses          1179160                       # Number of data accesses
system.cpu.dcache.ReadReq_hits::switch_cpus.data       132125                       # number of ReadReq hits
system.cpu.dcache.ReadReq_hits::total          132125                       # number of ReadReq hits
system.cpu.dcache.WriteReq_hits::switch_cpus.data        58536                       # number of WriteReq hits
system.cpu.dcache.WriteReq_hits::total          58536                       # number of WriteReq hits
system.cpu.dcache.LoadLockedReq_hits::switch_cpus.data         2219                       # number of LoadLockedReq hits
system.cpu.dcache.LoadLockedReq_hits::total         2219                       # number of LoadLockedReq hits
system.cpu.dcache.StoreCondReq_hits::switch_cpus.data         2378                       # number of StoreCondReq hits
system.cpu.dcache.StoreCondReq_hits::total         2378                       # number of StoreCondReq hits
system.cpu.dcache.demand_hits::switch_cpus.data       190661                       # number of demand (read+write) hits
system.cpu.dcache.demand_hits::total           190661                       # number of demand (read+write) hits
system.cpu.dcache.overall_hits::switch_cpus.data       190661                       # number of overall hits
system.cpu.dcache.overall_hits::total          190661                       # number of overall hits
system.cpu.dcache.ReadReq_misses::switch_cpus.data        26859                       # number of ReadReq misses
system.cpu.dcache.ReadReq_misses::total         26859                       # number of ReadReq misses
system.cpu.dcache.WriteReq_misses::switch_cpus.data        67710                       # number of WriteReq misses
system.cpu.dcache.WriteReq_misses::total        67710                       # number of WriteReq misses
system.cpu.dcache.LoadLockedReq_misses::switch_cpus.data          393                       # number of LoadLockedReq misses
system.cpu.dcache.LoadLockedReq_misses::total          393                       # number of LoadLockedReq misses
system.cpu.dcache.demand_misses::switch_cpus.data        94569                       # number of demand (read+write) misses
system.cpu.dcache.demand_misses::total          94569                       # number of demand (read+write) misses
system.cpu.dcache.overall_misses::switch_cpus.data        94569                       # number of overall misses
system.cpu.dcache.overall_misses::total         94569                       # number of overall misses
system.cpu.dcache.ReadReq_miss_latency::switch_cpus.data    760880000                       # number of ReadReq miss cycles
system.cpu.dcache.ReadReq_miss_latency::total    760880000                       # number of ReadReq miss cycles
system.cpu.dcache.WriteReq_miss_latency::switch_cpus.data   1050615753                       # number of WriteReq miss cycles
system.cpu.dcache.WriteReq_miss_latency::total   1050615753                       # number of WriteReq miss cycles
system.cpu.dcache.LoadLockedReq_miss_latency::switch_cpus.data     10646000                       # number of LoadLockedReq miss cycles
system.cpu.dcache.LoadLockedReq_miss_latency::total     10646000                       # number of LoadLockedReq miss cycles
system.cpu.dcache.demand_miss_latency::switch_cpus.data   1811495753                       # number of demand (read+write) miss cycles
system.cpu.dcache.demand_miss_latency::total   1811495753                       # number of demand (read+write) miss cycles
system.cpu.dcache.overall_miss_latency::switch_cpus.data   1811495753                       # number of overall miss cycles
system.cpu.dcache.overall_miss_latency::total   1811495753                       # number of overall miss cycles
system.cpu.dcache.ReadReq_accesses::switch_cpus.data       158984                       # number of ReadReq accesses(hits+misses)
system.cpu.dcache.ReadReq_accesses::total       158984                       # number of ReadReq accesses(hits+misses)
system.cpu.dcache.WriteReq_accesses::switch_cpus.data       126246                       # number of WriteReq accesses(hits+misses)
system.cpu.dcache.WriteReq_accesses::total       126246                       # number of WriteReq accesses(hits+misses)
system.cpu.dcache.LoadLockedReq_accesses::switch_cpus.data         2612                       # number of LoadLockedReq accesses(hits+misses)
system.cpu.dcache.LoadLockedReq_accesses::total         2612                       # number of LoadLockedReq accesses(hits+misses)
system.cpu.dcache.StoreCondReq_accesses::switch_cpus.data         2378                       # number of StoreCondReq accesses(hits+misses)
system.cpu.dcache.StoreCondReq_accesses::total         2378                       # number of StoreCondReq accesses(hits+misses)
system.cpu.dcache.demand_accesses::switch_cpus.data       285230                       # number of demand (read+write) accesses
system.cpu.dcache.demand_accesses::total       285230                       # number of demand (read+write) accesses
system.cpu.dcache.overall_accesses::switch_cpus.data       285230                       # number of overall (read+write) accesses
system.cpu.dcache.overall_accesses::total       285230                       # number of overall (read+write) accesses
system.cpu.dcache.ReadReq_miss_rate::switch_cpus.data     0.168942                       # miss rate for ReadReq accesses
system.cpu.dcache.ReadReq_miss_rate::total     0.168942                       # miss rate for ReadReq accesses
system.cpu.dcache.WriteReq_miss_rate::switch_cpus.data     0.536334                       # miss rate for WriteReq accesses
system.cpu.dcache.WriteReq_miss_rate::total     0.536334                       # miss rate for WriteReq accesses
system.cpu.dcache.LoadLockedReq_miss_rate::switch_cpus.data     0.150459                       # miss rate for LoadLockedReq accesses
system.cpu.dcache.LoadLockedReq_miss_rate::total     0.150459                       # miss rate for LoadLockedReq accesses
system.cpu.dcache.demand_miss_rate::switch_cpus.data     0.331553                       # miss rate for demand accesses
system.cpu.dcache.demand_miss_rate::total     0.331553                       # miss rate for demand accesses
system.cpu.dcache.overall_miss_rate::switch_cpus.data     0.331553                       # miss rate for overall accesses
system.cpu.dcache.overall_miss_rate::total     0.331553                       # miss rate for overall accesses
system.cpu.dcache.ReadReq_avg_miss_latency::switch_cpus.data 28328.679400                       # average ReadReq miss latency
system.cpu.dcache.ReadReq_avg_miss_latency::total 28328.679400                       # average ReadReq miss latency
system.cpu.dcache.WriteReq_avg_miss_latency::switch_cpus.data 15516.404564                       # average WriteReq miss latency
system.cpu.dcache.WriteReq_avg_miss_latency::total 15516.404564                       # average WriteReq miss latency
system.cpu.dcache.LoadLockedReq_avg_miss_latency::switch_cpus.data 27089.058524                       # average LoadLockedReq miss latency
system.cpu.dcache.LoadLockedReq_avg_miss_latency::total 27089.058524                       # average LoadLockedReq miss latency
system.cpu.dcache.demand_avg_miss_latency::switch_cpus.data 19155.280832                       # average overall miss latency
system.cpu.dcache.demand_avg_miss_latency::total 19155.280832                       # average overall miss latency
system.cpu.dcache.overall_avg_miss_latency::switch_cpus.data 19155.280832                       # average overall miss latency
system.cpu.dcache.overall_avg_miss_latency::total 19155.280832                       # average overall miss latency
system.cpu.dcache.blocked_cycles::no_mshrs        41766                       # number of cycles access was blocked
system.cpu.dcache.blocked_cycles::no_targets          136                       # number of cycles access was blocked
system.cpu.dcache.blocked::no_mshrs              4194                       # number of cycles access was blocked
system.cpu.dcache.blocked::no_targets               1                       # number of cycles access was blocked
system.cpu.dcache.avg_blocked_cycles::no_mshrs     9.958512                       # average number of cycles each access was blocked
system.cpu.dcache.avg_blocked_cycles::no_targets          136                       # average number of cycles each access was blocked
system.cpu.dcache.fast_writes                       0                       # number of fast writes performed
system.cpu.dcache.cache_copies                      0                       # number of cache copies performed
system.cpu.dcache.writebacks::writebacks        13127                       # number of writebacks
system.cpu.dcache.writebacks::total             13127                       # number of writebacks
system.cpu.dcache.ReadReq_mshr_hits::switch_cpus.data        17899                       # number of ReadReq MSHR hits
system.cpu.dcache.ReadReq_mshr_hits::total        17899                       # number of ReadReq MSHR hits
system.cpu.dcache.WriteReq_mshr_hits::switch_cpus.data        58606                       # number of WriteReq MSHR hits
system.cpu.dcache.WriteReq_mshr_hits::total        58606                       # number of WriteReq MSHR hits
system.cpu.dcache.LoadLockedReq_mshr_hits::switch_cpus.data          169                       # number of LoadLockedReq MSHR hits
system.cpu.dcache.LoadLockedReq_mshr_hits::total          169                       # number of LoadLockedReq MSHR hits
system.cpu.dcache.demand_mshr_hits::switch_cpus.data        76505                       # number of demand (read+write) MSHR hits
system.cpu.dcache.demand_mshr_hits::total        76505                       # number of demand (read+write) MSHR hits
system.cpu.dcache.overall_mshr_hits::switch_cpus.data        76505                       # number of overall MSHR hits
system.cpu.dcache.overall_mshr_hits::total        76505                       # number of overall MSHR hits
system.cpu.dcache.ReadReq_mshr_misses::switch_cpus.data         8960                       # number of ReadReq MSHR misses
system.cpu.dcache.ReadReq_mshr_misses::total         8960                       # number of ReadReq MSHR misses
system.cpu.dcache.WriteReq_mshr_misses::switch_cpus.data         9104                       # number of WriteReq MSHR misses
system.cpu.dcache.WriteReq_mshr_misses::total         9104                       # number of WriteReq MSHR misses
system.cpu.dcache.LoadLockedReq_mshr_misses::switch_cpus.data          224                       # number of LoadLockedReq MSHR misses
system.cpu.dcache.LoadLockedReq_mshr_misses::total          224                       # number of LoadLockedReq MSHR misses
system.cpu.dcache.demand_mshr_misses::switch_cpus.data        18064                       # number of demand (read+write) MSHR misses
system.cpu.dcache.demand_mshr_misses::total        18064                       # number of demand (read+write) MSHR misses
system.cpu.dcache.overall_mshr_misses::switch_cpus.data        18064                       # number of overall MSHR misses
system.cpu.dcache.overall_mshr_misses::total        18064                       # number of overall MSHR misses
system.cpu.dcache.WriteReq_mshr_uncacheable::switch_cpus.data            1                       # number of WriteReq MSHR uncacheable
system.cpu.dcache.WriteReq_mshr_uncacheable::total            1                       # number of WriteReq MSHR uncacheable
system.cpu.dcache.overall_mshr_uncacheable_misses::switch_cpus.data            1                       # number of overall MSHR uncacheable misses
system.cpu.dcache.overall_mshr_uncacheable_misses::total            1                       # number of overall MSHR uncacheable misses
system.cpu.dcache.ReadReq_mshr_miss_latency::switch_cpus.data    266339250                       # number of ReadReq MSHR miss cycles
system.cpu.dcache.ReadReq_mshr_miss_latency::total    266339250                       # number of ReadReq MSHR miss cycles
system.cpu.dcache.WriteReq_mshr_miss_latency::switch_cpus.data    143192564                       # number of WriteReq MSHR miss cycles
system.cpu.dcache.WriteReq_mshr_miss_latency::total    143192564                       # number of WriteReq MSHR miss cycles
system.cpu.dcache.LoadLockedReq_mshr_miss_latency::switch_cpus.data      4818000                       # number of LoadLockedReq MSHR miss cycles
system.cpu.dcache.LoadLockedReq_mshr_miss_latency::total      4818000                       # number of LoadLockedReq MSHR miss cycles
system.cpu.dcache.demand_mshr_miss_latency::switch_cpus.data    409531814                       # number of demand (read+write) MSHR miss cycles
system.cpu.dcache.demand_mshr_miss_latency::total    409531814                       # number of demand (read+write) MSHR miss cycles
system.cpu.dcache.overall_mshr_miss_latency::switch_cpus.data    409531814                       # number of overall MSHR miss cycles
system.cpu.dcache.overall_mshr_miss_latency::total    409531814                       # number of overall MSHR miss cycles
system.cpu.dcache.WriteReq_mshr_uncacheable_latency::switch_cpus.data       223500                       # number of WriteReq MSHR uncacheable cycles
system.cpu.dcache.WriteReq_mshr_uncacheable_latency::total       223500                       # number of WriteReq MSHR uncacheable cycles
system.cpu.dcache.overall_mshr_uncacheable_latency::switch_cpus.data       223500                       # number of overall MSHR uncacheable cycles
system.cpu.dcache.overall_mshr_uncacheable_latency::total       223500                       # number of overall MSHR uncacheable cycles
system.cpu.dcache.ReadReq_mshr_miss_rate::switch_cpus.data     0.056358                       # mshr miss rate for ReadReq accesses
system.cpu.dcache.ReadReq_mshr_miss_rate::total     0.056358                       # mshr miss rate for ReadReq accesses
system.cpu.dcache.WriteReq_mshr_miss_rate::switch_cpus.data     0.072113                       # mshr miss rate for WriteReq accesses
system.cpu.dcache.WriteReq_mshr_miss_rate::total     0.072113                       # mshr miss rate for WriteReq accesses
system.cpu.dcache.LoadLockedReq_mshr_miss_rate::switch_cpus.data     0.085758                       # mshr miss rate for LoadLockedReq accesses
system.cpu.dcache.LoadLockedReq_mshr_miss_rate::total     0.085758                       # mshr miss rate for LoadLockedReq accesses
system.cpu.dcache.demand_mshr_miss_rate::switch_cpus.data     0.063331                       # mshr miss rate for demand accesses
system.cpu.dcache.demand_mshr_miss_rate::total     0.063331                       # mshr miss rate for demand accesses
system.cpu.dcache.overall_mshr_miss_rate::switch_cpus.data     0.063331                       # mshr miss rate for overall accesses
system.cpu.dcache.overall_mshr_miss_rate::total     0.063331                       # mshr miss rate for overall accesses
system.cpu.dcache.ReadReq_avg_mshr_miss_latency::switch_cpus.data 29725.362723                       # average ReadReq mshr miss latency
system.cpu.dcache.ReadReq_avg_mshr_miss_latency::total 29725.362723                       # average ReadReq mshr miss latency
system.cpu.dcache.WriteReq_avg_mshr_miss_latency::switch_cpus.data 15728.532953                       # average WriteReq mshr miss latency
system.cpu.dcache.WriteReq_avg_mshr_miss_latency::total 15728.532953                       # average WriteReq mshr miss latency
system.cpu.dcache.LoadLockedReq_avg_mshr_miss_latency::switch_cpus.data 21508.928571                       # average LoadLockedReq mshr miss latency
system.cpu.dcache.LoadLockedReq_avg_mshr_miss_latency::total 21508.928571                       # average LoadLockedReq mshr miss latency
system.cpu.dcache.demand_avg_mshr_miss_latency::switch_cpus.data 22671.158880                       # average overall mshr miss latency
system.cpu.dcache.demand_avg_mshr_miss_latency::total 22671.158880                       # average overall mshr miss latency
system.cpu.dcache.overall_avg_mshr_miss_latency::switch_cpus.data 22671.158880                       # average overall mshr miss latency
system.cpu.dcache.overall_avg_mshr_miss_latency::total 22671.158880                       # average overall mshr miss latency
system.cpu.dcache.WriteReq_avg_mshr_uncacheable_latency::switch_cpus.data       223500                       # average WriteReq mshr uncacheable latency
system.cpu.dcache.WriteReq_avg_mshr_uncacheable_latency::total       223500                       # average WriteReq mshr uncacheable latency
system.cpu.dcache.overall_avg_mshr_uncacheable_latency::switch_cpus.data       223500                       # average overall mshr uncacheable latency
system.cpu.dcache.overall_avg_mshr_uncacheable_latency::total       223500                       # average overall mshr uncacheable latency
system.cpu.dcache.no_allocate_misses                0                       # Number of misses that were no-allocate
system.cpu.icache.tags.replacements             10434                       # number of replacements
system.cpu.icache.tags.tagsinuse           511.891739                       # Cycle average of tags in use
system.cpu.icache.tags.total_refs              360548                       # Total number of references to valid blocks.
system.cpu.icache.tags.sampled_refs             10434                       # Sample count of references to valid blocks.
system.cpu.icache.tags.avg_refs             34.555108                       # Average number of references to valid blocks.
system.cpu.icache.tags.warmup_cycle                 0                       # Cycle when the warmup percentage was hit.
system.cpu.icache.tags.occ_blocks::cpu.inst    25.381950                       # Average occupied blocks per requestor
system.cpu.icache.tags.occ_blocks::switch_cpus.inst   486.509789                       # Average occupied blocks per requestor
system.cpu.icache.tags.occ_percent::cpu.inst     0.049574                       # Average percentage of cache occupancy
system.cpu.icache.tags.occ_percent::switch_cpus.inst     0.950214                       # Average percentage of cache occupancy
system.cpu.icache.tags.occ_percent::total     0.999789                       # Average percentage of cache occupancy
system.cpu.icache.tags.occ_task_id_blocks::1024          511                       # Occupied blocks per task id
system.cpu.icache.tags.age_task_id_blocks_1024::0           67                       # Occupied blocks per task id
system.cpu.icache.tags.age_task_id_blocks_1024::1          107                       # Occupied blocks per task id
system.cpu.icache.tags.age_task_id_blocks_1024::2          337                       # Occupied blocks per task id
system.cpu.icache.tags.occ_task_id_percent::1024     0.998047                       # Percentage of cache occupancy per task id
system.cpu.icache.tags.tag_accesses            333123                       # Number of tag accesses
system.cpu.icache.tags.data_accesses           333123                       # Number of data accesses
system.cpu.icache.ReadReq_hits::switch_cpus.inst       148925                       # number of ReadReq hits
system.cpu.icache.ReadReq_hits::total          148925                       # number of ReadReq hits
system.cpu.icache.demand_hits::switch_cpus.inst       148925                       # number of demand (read+write) hits
system.cpu.icache.demand_hits::total           148925                       # number of demand (read+write) hits
system.cpu.icache.overall_hits::switch_cpus.inst       148925                       # number of overall hits
system.cpu.icache.overall_hits::total          148925                       # number of overall hits
system.cpu.icache.ReadReq_misses::switch_cpus.inst        12416                       # number of ReadReq misses
system.cpu.icache.ReadReq_misses::total         12416                       # number of ReadReq misses
system.cpu.icache.demand_misses::switch_cpus.inst        12416                       # number of demand (read+write) misses
system.cpu.icache.demand_misses::total          12416                       # number of demand (read+write) misses
system.cpu.icache.overall_misses::switch_cpus.inst        12416                       # number of overall misses
system.cpu.icache.overall_misses::total         12416                       # number of overall misses
system.cpu.icache.ReadReq_miss_latency::switch_cpus.inst    566686236                       # number of ReadReq miss cycles
system.cpu.icache.ReadReq_miss_latency::total    566686236                       # number of ReadReq miss cycles
system.cpu.icache.demand_miss_latency::switch_cpus.inst    566686236                       # number of demand (read+write) miss cycles
system.cpu.icache.demand_miss_latency::total    566686236                       # number of demand (read+write) miss cycles
system.cpu.icache.overall_miss_latency::switch_cpus.inst    566686236                       # number of overall miss cycles
system.cpu.icache.overall_miss_latency::total    566686236                       # number of overall miss cycles
system.cpu.icache.ReadReq_accesses::switch_cpus.inst       161341                       # number of ReadReq accesses(hits+misses)
system.cpu.icache.ReadReq_accesses::total       161341                       # number of ReadReq accesses(hits+misses)
system.cpu.icache.demand_accesses::switch_cpus.inst       161341                       # number of demand (read+write) accesses
system.cpu.icache.demand_accesses::total       161341                       # number of demand (read+write) accesses
system.cpu.icache.overall_accesses::switch_cpus.inst       161341                       # number of overall (read+write) accesses
system.cpu.icache.overall_accesses::total       161341                       # number of overall (read+write) accesses
system.cpu.icache.ReadReq_miss_rate::switch_cpus.inst     0.076955                       # miss rate for ReadReq accesses
system.cpu.icache.ReadReq_miss_rate::total     0.076955                       # miss rate for ReadReq accesses
system.cpu.icache.demand_miss_rate::switch_cpus.inst     0.076955                       # miss rate for demand accesses
system.cpu.icache.demand_miss_rate::total     0.076955                       # miss rate for demand accesses
system.cpu.icache.overall_miss_rate::switch_cpus.inst     0.076955                       # miss rate for overall accesses
system.cpu.icache.overall_miss_rate::total     0.076955                       # miss rate for overall accesses
system.cpu.icache.ReadReq_avg_miss_latency::switch_cpus.inst 45641.610503                       # average ReadReq miss latency
system.cpu.icache.ReadReq_avg_miss_latency::total 45641.610503                       # average ReadReq miss latency
system.cpu.icache.demand_avg_miss_latency::switch_cpus.inst 45641.610503                       # average overall miss latency
system.cpu.icache.demand_avg_miss_latency::total 45641.610503                       # average overall miss latency
system.cpu.icache.overall_avg_miss_latency::switch_cpus.inst 45641.610503                       # average overall miss latency
system.cpu.icache.overall_avg_miss_latency::total 45641.610503                       # average overall miss latency
system.cpu.icache.blocked_cycles::no_mshrs         1921                       # number of cycles access was blocked
system.cpu.icache.blocked_cycles::no_targets            0                       # number of cycles access was blocked
system.cpu.icache.blocked::no_mshrs                46                       # number of cycles access was blocked
system.cpu.icache.blocked::no_targets               0                       # number of cycles access was blocked
system.cpu.icache.avg_blocked_cycles::no_mshrs    41.760870                       # average number of cycles each access was blocked
system.cpu.icache.avg_blocked_cycles::no_targets          nan                       # average number of cycles each access was blocked
system.cpu.icache.fast_writes                       0                       # number of fast writes performed
system.cpu.icache.cache_copies                      0                       # number of cache copies performed
system.cpu.icache.ReadReq_mshr_hits::switch_cpus.inst         1973                       # number of ReadReq MSHR hits
system.cpu.icache.ReadReq_mshr_hits::total         1973                       # number of ReadReq MSHR hits
system.cpu.icache.demand_mshr_hits::switch_cpus.inst         1973                       # number of demand (read+write) MSHR hits
system.cpu.icache.demand_mshr_hits::total         1973                       # number of demand (read+write) MSHR hits
system.cpu.icache.overall_mshr_hits::switch_cpus.inst         1973                       # number of overall MSHR hits
system.cpu.icache.overall_mshr_hits::total         1973                       # number of overall MSHR hits
system.cpu.icache.ReadReq_mshr_misses::switch_cpus.inst        10443                       # number of ReadReq MSHR misses
system.cpu.icache.ReadReq_mshr_misses::total        10443                       # number of ReadReq MSHR misses
system.cpu.icache.demand_mshr_misses::switch_cpus.inst        10443                       # number of demand (read+write) MSHR misses
system.cpu.icache.demand_mshr_misses::total        10443                       # number of demand (read+write) MSHR misses
system.cpu.icache.overall_mshr_misses::switch_cpus.inst        10443                       # number of overall MSHR misses
system.cpu.icache.overall_mshr_misses::total        10443                       # number of overall MSHR misses
system.cpu.icache.ReadReq_mshr_miss_latency::switch_cpus.inst    457001258                       # number of ReadReq MSHR miss cycles
system.cpu.icache.ReadReq_mshr_miss_latency::total    457001258                       # number of ReadReq MSHR miss cycles
system.cpu.icache.demand_mshr_miss_latency::switch_cpus.inst    457001258                       # number of demand (read+write) MSHR miss cycles
system.cpu.icache.demand_mshr_miss_latency::total    457001258                       # number of demand (read+write) MSHR miss cycles
system.cpu.icache.overall_mshr_miss_latency::switch_cpus.inst    457001258                       # number of overall MSHR miss cycles
system.cpu.icache.overall_mshr_miss_latency::total    457001258                       # number of overall MSHR miss cycles
system.cpu.icache.ReadReq_mshr_miss_rate::switch_cpus.inst     0.064726                       # mshr miss rate for ReadReq accesses
system.cpu.icache.ReadReq_mshr_miss_rate::total     0.064726                       # mshr miss rate for ReadReq accesses
system.cpu.icache.demand_mshr_miss_rate::switch_cpus.inst     0.064726                       # mshr miss rate for demand accesses
system.cpu.icache.demand_mshr_miss_rate::total     0.064726                       # mshr miss rate for demand accesses
system.cpu.icache.overall_mshr_miss_rate::switch_cpus.inst     0.064726                       # mshr miss rate for overall accesses
system.cpu.icache.overall_mshr_miss_rate::total     0.064726                       # mshr miss rate for overall accesses
system.cpu.icache.ReadReq_avg_mshr_miss_latency::switch_cpus.inst 43761.491717                       # average ReadReq mshr miss latency
system.cpu.icache.ReadReq_avg_mshr_miss_latency::total 43761.491717                       # average ReadReq mshr miss latency
system.cpu.icache.demand_avg_mshr_miss_latency::switch_cpus.inst 43761.491717                       # average overall mshr miss latency
[...]
system.switch_cpus.iew.wb_penalized_rate            0                       # fraction of instructions written-back that wrote to 'other' IQ
system.switch_cpus.commit.commitSquashedInsts      1971191                       # The number of squashed insts skipped by commit
system.switch_cpus.commit.commitNonSpecStalls       234931                       # The number of times commit has been forced to stall to communicate backwards
system.switch_cpus.commit.branchMispredicts        86798                       # The number of times a branch was mispredicted
system.switch_cpus.commit.committed_per_cycle::samples     72467881                       # Number of insts commited each cycle
system.switch_cpus.commit.committed_per_cycle::mean     1.557046                       # Number of insts commited each cycle
system.switch_cpus.commit.committed_per_cycle::stdev     2.591221                       # Number of insts commited each cycle
system.switch_cpus.commit.committed_per_cycle::underflows            0      0.00%      0.00% # Number of insts commited each cycle
system.switch_cpus.commit.committed_per_cycle::0     42779648     59.03%     59.03% # Number of insts commited each cycle
system.switch_cpus.commit.committed_per_cycle::1      9973682     13.76%     72.80% # Number of insts commited each cycle
system.switch_cpus.commit.committed_per_cycle::2      3508994      4.84%     77.64% # Number of insts commited each cycle
system.switch_cpus.commit.committed_per_cycle::3      3729006      5.15%     82.78% # Number of insts commited each cycle
system.switch_cpus.commit.committed_per_cycle::4      2268465      3.13%     85.91% # Number of insts commited each cycle
system.switch_cpus.commit.committed_per_cycle::5       694901      0.96%     86.87% # Number of insts commited each cycle
system.switch_cpus.commit.committed_per_cycle::6      1069471      1.48%     88.35% # Number of insts commited each cycle
system.switch_cpus.commit.committed_per_cycle::7      1857761      2.56%     90.91% # Number of insts commited each cycle
system.switch_cpus.commit.committed_per_cycle::8      6585953      9.09%    100.00% # Number of insts commited each cycle
system.switch_cpus.commit.committed_per_cycle::overflows            0      0.00%    100.00% # Number of insts commited each cycle
system.switch_cpus.commit.committed_per_cycle::min_value            0                       # Number of insts commited each cycle
system.switch_cpus.commit.committed_per_cycle::max_value            8                       # Number of insts commited each cycle
system.switch_cpus.commit.committed_per_cycle::total     72467881                       # Number of insts commited each cycle
system.switch_cpus.commit.committedInsts    112835830                       # Number of instructions committed
system.switch_cpus.commit.committedOps      112835830                       # Number of ops (including micro ops) committed
system.switch_cpus.commit.swp_count                 0                       # Number of s/w prefetches committed
system.switch_cpus.commit.refs               37835302                       # Number of memory references committed
system.switch_cpus.commit.loads              23336573                       # Number of loads committed
system.switch_cpus.commit.membars              115785                       # Number of memory barriers committed
system.switch_cpus.commit.branches           19708337                       # Number of branches committed
system.switch_cpus.commit.fp_insts               4914                       # Number of committed floating point instructions.
system.switch_cpus.commit.int_insts         100300280                       # Number of committed integer instructions.
system.switch_cpus.commit.function_calls      3870007                       # Number of function calls committed.
system.switch_cpus.commit.op_class_0::No_OpClass     11279889     10.00%     10.00% # Class of committed instruction
system.switch_cpus.commit.op_class_0::IntAlu     63455040     56.24%     66.23% # Class of committed instruction
system.switch_cpus.commit.op_class_0::IntMult        13817      0.01%     66.25% # Class of committed instruction
system.switch_cpus.commit.op_class_0::IntDiv            0      0.00%     66.25% # Class of committed instruction
system.switch_cpus.commit.op_class_0::FloatAdd         1679      0.00%     66.25% # Class of committed instruction
system.switch_cpus.commit.op_class_0::FloatCmp            1      0.00%     66.25% # Class of committed instruction
system.switch_cpus.commit.op_class_0::FloatCvt            2      0.00%     66.25% # Class of committed instruction
system.switch_cpus.commit.op_class_0::FloatMult            1      0.00%     66.25% # Class of committed instruction
system.switch_cpus.commit.op_class_0::FloatDiv          245      0.00%     66.25% # Class of committed instruction
system.switch_cpus.commit.op_class_0::FloatSqrt            0      0.00%     66.25% # Class of committed instruction
system.switch_cpus.commit.op_class_0::SimdAdd            0      0.00%     66.25% # Class of committed instruction
system.switch_cpus.commit.op_class_0::SimdAddAcc            0      0.00%     66.25% # Class of committed instruction
system.switch_cpus.commit.op_class_0::SimdAlu            0      0.00%     66.25% # Class of committed instruction
system.switch_cpus.commit.op_class_0::SimdCmp            0      0.00%     66.25% # Class of committed instruction
system.switch_cpus.commit.op_class_0::SimdCvt            0      0.00%     66.25% # Class of committed instruction
system.switch_cpus.commit.op_class_0::SimdMisc            0      0.00%     66.25% # Class of committed instruction
system.switch_cpus.commit.op_class_0::SimdMult            0      0.00%     66.25% # Class of committed instruction
system.switch_cpus.commit.op_class_0::SimdMultAcc            0      0.00%     66.25% # Class of committed instruction
system.switch_cpus.commit.op_class_0::SimdShift            0      0.00%     66.25% # Class of committed instruction
system.switch_cpus.commit.op_class_0::SimdShiftAcc            0      0.00%     66.25% # Class of committed instruction
system.switch_cpus.commit.op_class_0::SimdSqrt            0      0.00%     66.25% # Class of committed instruction
system.switch_cpus.commit.op_class_0::SimdFloatAdd            0      0.00%     66.25% # Class of committed instruction
system.switch_cpus.commit.op_class_0::SimdFloatAlu            0      0.00%     66.25% # Class of committed instruction
system.switch_cpus.commit.op_class_0::SimdFloatCmp            0      0.00%     66.25% # Class of committed instruction
system.switch_cpus.commit.op_class_0::SimdFloatCvt            0      0.00%     66.25% # Class of committed instruction
system.switch_cpus.commit.op_class_0::SimdFloatDiv            0      0.00%     66.25% # Class of committed instruction
system.switch_cpus.commit.op_class_0::SimdFloatMisc            0      0.00%     66.25% # Class of committed instruction
system.switch_cpus.commit.op_class_0::SimdFloatMult            0      0.00%     66.25% # Class of committed instruction
system.switch_cpus.commit.op_class_0::SimdFloatMultAcc            0      0.00%     66.25% # Class of committed instruction
system.switch_cpus.commit.op_class_0::SimdFloatSqrt            0      0.00%     66.25% # Class of committed instruction
system.switch_cpus.commit.op_class_0::MemRead     23452358     20.78%     87.03% # Class of committed instruction
system.switch_cpus.commit.op_class_0::MemWrite     14499532     12.85%     99.88% # Class of committed instruction
system.switch_cpus.commit.op_class_0::IprAccess       133266      0.12%    100.00% # Class of committed instruction
system.switch_cpus.commit.op_class_0::InstPrefetch            0      0.00%    100.00% # Class of committed instruction
system.switch_cpus.commit.op_class_0::total    112835830                       # Class of committed instruction
system.switch_cpus.commit.bw_lim_events       6585953                       # number cycles where commit BW limit reached
system.switch_cpus.rob.rob_reads            180613301                       # The number of ROB reads
system.switch_cpus.rob.rob_writes           229930342                       # The number of ROB writes
system.switch_cpus.timesIdled                   48228                       # Number of times that the entire CPU went into an idle state and unscheduled itself
system.switch_cpus.idleCycles                 2378040                       # Total number of cycles that the CPU has spent unscheduled due to idling
system.switch_cpus.quiesceCycles               342795                       # Total number of cycles that CPU has spent quiesced or waiting for an interrupt
system.switch_cpus.committedInsts           101556433                       # Number of Instructions Simulated
system.switch_cpus.committedOps             101556433                       # Number of Ops (including micro ops) Simulated
system.switch_cpus.cpi                       0.740097                       # CPI: Cycles Per Instruction
system.switch_cpus.cpi_total                 0.740097                       # CPI: Total CPI of All Threads
system.switch_cpus.ipc                       1.351174                       # IPC: Instructions Per Cycle
system.switch_cpus.ipc_total                 1.351174                       # IPC: Total IPC of All Threads
system.switch_cpus.int_regfile_reads        135237044                       # number of integer regfile reads
system.switch_cpus.int_regfile_writes        71844977                       # number of integer regfile writes
system.switch_cpus.fp_regfile_reads              3177                       # number of floating regfile reads
system.switch_cpus.fp_regfile_writes             2849                       # number of floating regfile writes
system.switch_cpus.misc_regfile_reads          334189                       # number of misc regfile reads
system.switch_cpus.misc_regfile_writes         261808                       # number of misc regfile writes
system.tol2bus.trans_dist::ReadReq             422026                       # Transaction distribution
system.tol2bus.trans_dist::ReadResp            422022                       # Transaction distribution
system.tol2bus.trans_dist::WriteReq               316                       # Transaction distribution
system.tol2bus.trans_dist::WriteResp              316                       # Transaction distribution
system.tol2bus.trans_dist::Writeback           314177                       # Transaction distribution
system.tol2bus.trans_dist::WriteInvalidateReq         1346                       # Transaction distribution
system.tol2bus.trans_dist::UpgradeReq              16                       # Transaction distribution
system.tol2bus.trans_dist::SCUpgradeReq             6                       # Transaction distribution
system.tol2bus.trans_dist::UpgradeResp             22                       # Transaction distribution
system.tol2bus.trans_dist::ReadExReq            40496                       # Transaction distribution
system.tol2bus.trans_dist::ReadExResp           40496                       # Transaction distribution
system.tol2bus.trans_dist::BadAddressError            4                       # Transaction distribution
system.tol2bus.pkt_count_system.cpu.icache.mem_side::system.l2.cpu_side       147952                       # Packet count per connected master and slave (bytes)
system.tol2bus.pkt_count_system.cpu.dcache.mem_side::system.l2.cpu_side      1091912                       # Packet count per connected master and slave (bytes)
system.tol2bus.pkt_count::total               1239864                       # Packet count per connected master and slave (bytes)
system.tol2bus.pkt_size_system.cpu.icache.mem_side::system.l2.cpu_side      4733632                       # Cumulative packet size per connected master and slave (bytes)
system.tol2bus.pkt_size_system.cpu.dcache.mem_side::system.l2.cpu_side     44939904                       # Cumulative packet size per connected master and slave (bytes)
system.tol2bus.pkt_size::total               49673536                       # Cumulative packet size per connected master and slave (bytes)
system.tol2bus.snoops                            1384                       # Total snoops (count)
system.tol2bus.snoop_fanout::samples           778383                       # Request fanout histogram
system.tol2bus.snoop_fanout::mean            1.001737                       # Request fanout histogram
system.tol2bus.snoop_fanout::stdev           0.041640                       # Request fanout histogram
system.tol2bus.snoop_fanout::underflows             0      0.00%      0.00% # Request fanout histogram
system.tol2bus.snoop_fanout::0                      0      0.00%      0.00% # Request fanout histogram
system.tol2bus.snoop_fanout::1                 777031     99.83%     99.83% # Request fanout histogram
system.tol2bus.snoop_fanout::2                   1352      0.17%    100.00% # Request fanout histogram
system.tol2bus.snoop_fanout::overflows              0      0.00%    100.00% # Request fanout histogram
system.tol2bus.snoop_fanout::min_value              1                       # Request fanout histogram
system.tol2bus.snoop_fanout::max_value              2                       # Request fanout histogram
system.tol2bus.snoop_fanout::total             778383                       # Request fanout histogram
system.tol2bus.reqLayer0.occupancy          702850500                       # Layer occupancy (ticks)
system.tol2bus.reqLayer0.utilization              1.9                       # Layer utilization (%)
system.tol2bus.snoopLayer0.occupancy             7500                       # Layer occupancy (ticks)
system.tol2bus.snoopLayer0.utilization            0.0                       # Layer utilization (%)
system.tol2bus.respLayer0.occupancy         115372182                       # Layer occupancy (ticks)
system.tol2bus.respLayer0.utilization             0.3                       # Layer utilization (%)
system.tol2bus.respLayer1.occupancy         639713997                       # Layer occupancy (ticks)
system.tol2bus.respLayer1.utilization             1.7                       # Layer utilization (%)
system.tsunami.ethernet.descDMAReads                0                       # Number of descriptors the device read w/ DMA
system.tsunami.ethernet.descDMAWrites               0                       # Number of descriptors the device wrote w/ DMA
system.tsunami.ethernet.descDmaReadBytes            0                       # number of descriptor bytes read w/ DMA
system.tsunami.ethernet.descDmaWriteBytes            0                       # number of descriptor bytes write w/ DMA
system.tsunami.ethernet.postedSwi                   0                       # number of software interrupts posted to CPU
system.tsunami.ethernet.coalescedSwi              nan                       # average number of Swi's coalesced into each post
system.tsunami.ethernet.totalSwi                    0                       # total number of Swi written to ISR
system.tsunami.ethernet.postedRxIdle                0                       # number of rxIdle interrupts posted to CPU
system.tsunami.ethernet.coalescedRxIdle           nan                       # average number of RxIdle's coalesced into each post
system.tsunami.ethernet.totalRxIdle                 0                       # total number of RxIdle written to ISR
system.tsunami.ethernet.postedRxOk                  0                       # number of RxOk interrupts posted to CPU
system.tsunami.ethernet.coalescedRxOk             nan                       # average number of RxOk's coalesced into each post
system.tsunami.ethernet.totalRxOk                   0                       # total number of RxOk written to ISR
system.tsunami.ethernet.postedRxDesc                0                       # number of RxDesc interrupts posted to CPU
system.tsunami.ethernet.coalescedRxDesc           nan                       # average number of RxDesc's coalesced into each post
system.tsunami.ethernet.totalRxDesc                 0                       # total number of RxDesc written to ISR
system.tsunami.ethernet.postedTxOk                  0                       # number of TxOk interrupts posted to CPU
system.tsunami.ethernet.coalescedTxOk             nan                       # average number of TxOk's coalesced into each post
system.tsunami.ethernet.totalTxOk                   0                       # total number of TxOk written to ISR
system.tsunami.ethernet.postedTxIdle                0                       # number of TxIdle interrupts posted to CPU
system.tsunami.ethernet.coalescedTxIdle           nan                       # average number of TxIdle's coalesced into each post
system.tsunami.ethernet.totalTxIdle                 0                       # total number of TxIdle written to ISR
system.tsunami.ethernet.postedTxDesc                0                       # number of TxDesc interrupts posted to CPU
system.tsunami.ethernet.coalescedTxDesc           nan                       # average number of TxDesc's coalesced into each post
system.tsunami.ethernet.totalTxDesc                 0                       # total number of TxDesc written to ISR
system.tsunami.ethernet.postedRxOrn                 0                       # number of RxOrn posted to CPU
system.tsunami.ethernet.coalescedRxOrn            nan                       # average number of RxOrn's coalesced into each post
system.tsunami.ethernet.totalRxOrn                  0                       # total number of RxOrn written to ISR
system.tsunami.ethernet.coalescedTotal            nan                       # average number of interrupts coalesced into each post
system.tsunami.ethernet.postedInterrupts            0                       # number of posts to CPU
system.tsunami.ethernet.droppedPackets              0                       # number of packets dropped
system.switch_cpus.kern.inst.arm                    0                       # number of arm instructions executed
system.switch_cpus.kern.inst.quiesce                0                       # number of quiesce instructions executed
system.switch_cpus.kern.inst.hwrei                  0                       # number of hwrei instructions executed
system.switch_cpus.kern.mode_switch::kernel            0                       # number of protection mode switches
system.switch_cpus.kern.mode_switch::user            0                       # number of protection mode switches
system.switch_cpus.kern.mode_switch::idle            0                       # number of protection mode switches
system.switch_cpus.kern.mode_good::kernel            0                      
system.switch_cpus.kern.mode_good::user             0                      
system.switch_cpus.kern.mode_good::idle             0                      
system.switch_cpus.kern.mode_switch_good::kernel          nan                       # fraction of useful protection mode switches
system.switch_cpus.kern.mode_switch_good::user          nan                       # fraction of useful protection mode switches
system.switch_cpus.kern.mode_switch_good::idle          nan                       # fraction of useful protection mode switches
system.switch_cpus.kern.mode_switch_good::total          nan                       # fraction of useful protection mode switches
system.switch_cpus.kern.mode_ticks::kernel            0                       # number of ticks spent at the given mode
system.switch_cpus.kern.mode_ticks::user            0                       # number of ticks spent at the given mode
system.switch_cpus.kern.mode_ticks::idle            0                       # number of ticks spent at the given mode
system.switch_cpus.kern.swap_context                0                       # number of times the context was actually changed

---------- End Simulation Statistics   ----------
