
---------- Begin Simulation Statistics ----------
sim_seconds                                  0.000666                       # Number of seconds simulated
sim_ticks                                   665606000                       # Number of ticks simulated
final_tick                               2255105816500                       # Number of ticks from beginning of simulation (restored from checkpoints and never reset)
sim_freq                                 1000000000000                       # Frequency of simulated ticks
host_inst_rate                               41821670                       # Simulator instruction rate (inst/s)
host_op_rate                                 41821540                       # Simulator op (including micro ops) rate (op/s)
host_tick_rate                              284092833                       # Simulator tick rate (ticks/s)
host_mem_usage                                 728852                       # Number of bytes of host memory used
host_seconds                                     2.34                       # Real time elapsed on the host
sim_insts                                    97984118                       # Number of instructions simulated
sim_ops                                      97984118                       # Number of ops (including micro ops) simulated
system.voltage_domain.voltage                       1                       # Voltage in Volts
system.clk_domain.clock                          1000                       # Clock period in ticks
system.mem_ctrls.bytes_read::switch_cpus.inst       111808                       # Number of bytes read from this memory
system.mem_ctrls.bytes_read::switch_cpus.data       229056                       # Number of bytes read from this memory
system.mem_ctrls.bytes_read::total             340864                       # Number of bytes read from this memory
system.mem_ctrls.bytes_inst_read::switch_cpus.inst       111808                       # Number of instructions bytes read from this memory
system.mem_ctrls.bytes_inst_read::total        111808                       # Number of instructions bytes read from this memory
system.mem_ctrls.bytes_written::writebacks       155200                       # Number of bytes written to this memory
system.mem_ctrls.bytes_written::total          155200                       # Number of bytes written to this memory
system.mem_ctrls.num_reads::switch_cpus.inst         1747                       # Number of read requests responded to by this memory
system.mem_ctrls.num_reads::switch_cpus.data         3579                       # Number of read requests responded to by this memory
system.mem_ctrls.num_reads::total                5326                       # Number of read requests responded to by this memory
system.mem_ctrls.num_writes::writebacks          2425                       # Number of write requests responded to by this memory
system.mem_ctrls.num_writes::total               2425                       # Number of write requests responded to by this memory
system.mem_ctrls.bw_read::switch_cpus.inst    167979255                       # Total read bandwidth from this memory (bytes/s)
system.mem_ctrls.bw_read::switch_cpus.data    344131513                       # Total read bandwidth from this memory (bytes/s)
system.mem_ctrls.bw_read::total             512110768                       # Total read bandwidth from this memory (bytes/s)
system.mem_ctrls.bw_inst_read::switch_cpus.inst    167979255                       # Instruction read bandwidth from this memory (bytes/s)
system.mem_ctrls.bw_inst_read::total        167979255                       # Instruction read bandwidth from this memory (bytes/s)
system.mem_ctrls.bw_write::writebacks       233170975                       # Write bandwidth from this memory (bytes/s)
system.mem_ctrls.bw_write::total            233170975                       # Write bandwidth from this memory (bytes/s)
system.mem_ctrls.bw_total::writebacks       233170975                       # Total bandwidth to/from this memory (bytes/s)
system.mem_ctrls.bw_total::switch_cpus.inst    167979255                       # Total bandwidth to/from this memory (bytes/s)
system.mem_ctrls.bw_total::switch_cpus.data    344131513                       # Total bandwidth to/from this memory (bytes/s)
system.mem_ctrls.bw_total::total            745281743                       # Total bandwidth to/from this memory (bytes/s)
system.mem_ctrls.readReqs                        5326                       # Number of read requests accepted
system.mem_ctrls.writeReqs                       2425                       # Number of write requests accepted
system.mem_ctrls.readBursts                      5326                       # Number of DRAM read bursts, including those serviced by the write queue
system.mem_ctrls.writeBursts                     2425                       # Number of DRAM write bursts, including those merged in the write queue
system.mem_ctrls.bytesReadDRAM                 339840                       # Total number of bytes read from DRAM
system.mem_ctrls.bytesReadWrQ                    1024                       # Total number of bytes read from write queue
system.mem_ctrls.bytesWritten                  153408                       # Total number of bytes written to DRAM
system.mem_ctrls.bytesReadSys                  340864                       # Total read bytes from the system interface side
system.mem_ctrls.bytesWrittenSys               155200                       # Total written bytes from the system interface side
system.mem_ctrls.servicedByWrQ                     16                       # Number of DRAM read bursts serviced by the write queue
system.mem_ctrls.mergedWrBursts                     0                       # Number of DRAM write bursts merged with an existing one
system.mem_ctrls.neitherReadNorWriteReqs            0                       # Number of requests that are neither read nor write
system.mem_ctrls.perBankRdBursts::0               521                       # Per bank write bursts
system.mem_ctrls.perBankRdBursts::1               171                       # Per bank write bursts
system.mem_ctrls.perBankRdBursts::2               289                       # Per bank write bursts
system.mem_ctrls.perBankRdBursts::3               453                       # Per bank write bursts
system.mem_ctrls.perBankRdBursts::4               114                       # Per bank write bursts
system.mem_ctrls.perBankRdBursts::5               475                       # Per bank write bursts
system.mem_ctrls.perBankRdBursts::6               206                       # Per bank write bursts
system.mem_ctrls.perBankRdBursts::7               300                       # Per bank write bursts
system.mem_ctrls.perBankRdBursts::8               405                       # Per bank write bursts
system.mem_ctrls.perBankRdBursts::9               216                       # Per bank write bursts
system.mem_ctrls.perBankRdBursts::10              405                       # Per bank write bursts
system.mem_ctrls.perBankRdBursts::11              615                       # Per bank write bursts
system.mem_ctrls.perBankRdBursts::12              148                       # Per bank write bursts
system.mem_ctrls.perBankRdBursts::13              571                       # Per bank write bursts
system.mem_ctrls.perBankRdBursts::14              220                       # Per bank write bursts
system.mem_ctrls.perBankRdBursts::15              201                       # Per bank write bursts
system.mem_ctrls.perBankWrBursts::0               110                       # Per bank write bursts
system.mem_ctrls.perBankWrBursts::1                72                       # Per bank write bursts
system.mem_ctrls.perBankWrBursts::2               151                       # Per bank write bursts
system.mem_ctrls.perBankWrBursts::3               427                       # Per bank write bursts
system.mem_ctrls.perBankWrBursts::4                52                       # Per bank write bursts
system.mem_ctrls.perBankWrBursts::5               421                       # Per bank write bursts
system.mem_ctrls.perBankWrBursts::6                96                       # Per bank write bursts
system.mem_ctrls.perBankWrBursts::7               142                       # Per bank write bursts
system.mem_ctrls.perBankWrBursts::8               250                       # Per bank write bursts
system.mem_ctrls.perBankWrBursts::9                82                       # Per bank write bursts
system.mem_ctrls.perBankWrBursts::10              153                       # Per bank write bursts
system.mem_ctrls.perBankWrBursts::11              125                       # Per bank write bursts
system.mem_ctrls.perBankWrBursts::12               32                       # Per bank write bursts
system.mem_ctrls.perBankWrBursts::13              133                       # Per bank write bursts
system.mem_ctrls.perBankWrBursts::14               66                       # Per bank write bursts
system.mem_ctrls.perBankWrBursts::15               85                       # Per bank write bursts
system.mem_ctrls.numRdRetry                         0                       # Number of times read queue was full causing retry
system.mem_ctrls.numWrRetry                         0                       # Number of times write queue was full causing retry
system.mem_ctrls.totGap                     665218000                       # Total gap between requests
system.mem_ctrls.readPktSize::0                     0                       # Read request sizes (log2)
system.mem_ctrls.readPktSize::1                     0                       # Read request sizes (log2)
system.mem_ctrls.readPktSize::2                     0                       # Read request sizes (log2)
system.mem_ctrls.readPktSize::3                     0                       # Read request sizes (log2)
system.mem_ctrls.readPktSize::4                     0                       # Read request sizes (log2)
system.mem_ctrls.readPktSize::5                     0                       # Read request sizes (log2)
system.mem_ctrls.readPktSize::6                  5326                       # Read request sizes (log2)
system.mem_ctrls.writePktSize::0                    0                       # Write request sizes (log2)
system.mem_ctrls.writePktSize::1                    0                       # Write request sizes (log2)
system.mem_ctrls.writePktSize::2                    0                       # Write request sizes (log2)
system.mem_ctrls.writePktSize::3                    0                       # Write request sizes (log2)
system.mem_ctrls.writePktSize::4                    0                       # Write request sizes (log2)
system.mem_ctrls.writePktSize::5                    0                       # Write request sizes (log2)
system.mem_ctrls.writePktSize::6                 2425                       # Write request sizes (log2)
system.mem_ctrls.rdQLenPdf::0                    3293                       # What read queue length does an incoming req see
system.mem_ctrls.rdQLenPdf::1                    1265                       # What read queue length does an incoming req see
system.mem_ctrls.rdQLenPdf::2                     521                       # What read queue length does an incoming req see
system.mem_ctrls.rdQLenPdf::3                     230                       # What read queue length does an incoming req see
system.mem_ctrls.rdQLenPdf::4                       1                       # What read queue length does an incoming req see
system.mem_ctrls.rdQLenPdf::5                       0                       # What read queue length does an incoming req see
system.mem_ctrls.rdQLenPdf::6                       0                       # What read queue length does an incoming req see
system.mem_ctrls.rdQLenPdf::7                       0                       # What read queue length does an incoming req see
system.mem_ctrls.rdQLenPdf::8                       0                       # What read queue length does an incoming req see
system.mem_ctrls.rdQLenPdf::9                       0                       # What read queue length does an incoming req see
system.mem_ctrls.rdQLenPdf::10                      0                       # What read queue length does an incoming req see
system.mem_ctrls.rdQLenPdf::11                      0                       # What read queue length does an incoming req see
system.mem_ctrls.rdQLenPdf::12                      0                       # What read queue length does an incoming req see
system.mem_ctrls.rdQLenPdf::13                      0                       # What read queue length does an incoming req see
system.mem_ctrls.rdQLenPdf::14                      0                       # What read queue length does an incoming req see
system.mem_ctrls.rdQLenPdf::15                      0                       # What read queue length does an incoming req see
system.mem_ctrls.rdQLenPdf::16                      0                       # What read queue length does an incoming req see
system.mem_ctrls.rdQLenPdf::17                      0                       # What read queue length does an incoming req see
system.mem_ctrls.rdQLenPdf::18                      0                       # What read queue length does an incoming req see
system.mem_ctrls.rdQLenPdf::19                      0                       # What read queue length does an incoming req see
system.mem_ctrls.rdQLenPdf::20                      0                       # What read queue length does an incoming req see
system.mem_ctrls.rdQLenPdf::21                      0                       # What read queue length does an incoming req see
system.mem_ctrls.rdQLenPdf::22                      0                       # What read queue length does an incoming req see
system.mem_ctrls.rdQLenPdf::23                      0                       # What read queue length does an incoming req see
system.mem_ctrls.rdQLenPdf::24                      0                       # What read queue length does an incoming req see
system.mem_ctrls.rdQLenPdf::25                      0                       # What read queue length does an incoming req see
system.mem_ctrls.rdQLenPdf::26                      0                       # What read queue length does an incoming req see
system.mem_ctrls.rdQLenPdf::27                      0                       # What read queue length does an incoming req see
system.mem_ctrls.rdQLenPdf::28                      0                       # What read queue length does an incoming req see
system.mem_ctrls.rdQLenPdf::29                      0                       # What read queue length does an incoming req see
system.mem_ctrls.rdQLenPdf::30                      0                       # What read queue length does an incoming req see
system.mem_ctrls.rdQLenPdf::31                      0                       # What read queue length does an incoming req see
system.mem_ctrls.wrQLenPdf::0                       1                       # What write queue length does an incoming req see
system.mem_ctrls.wrQLenPdf::1                       1                       # What write queue length does an incoming req see
system.mem_ctrls.wrQLenPdf::2                       1                       # What write queue length does an incoming req see
system.mem_ctrls.wrQLenPdf::3                       1                       # What write queue length does an incoming req see
system.mem_ctrls.wrQLenPdf::4                       1                       # What write queue length does an incoming req see
system.mem_ctrls.wrQLenPdf::5                       1                       # What write queue length does an incoming req see
system.mem_ctrls.wrQLenPdf::6                       1                       # What write queue length does an incoming req see
system.mem_ctrls.wrQLenPdf::7                       1                       # What write queue length does an incoming req see
system.mem_ctrls.wrQLenPdf::8                       1                       # What write queue length does an incoming req see
system.mem_ctrls.wrQLenPdf::9                       1                       # What write queue length does an incoming req see
system.mem_ctrls.wrQLenPdf::10                      1                       # What write queue length does an incoming req see
system.mem_ctrls.wrQLenPdf::11                      1                       # What write queue length does an incoming req see
system.mem_ctrls.wrQLenPdf::12                      1                       # What write queue length does an incoming req see
system.mem_ctrls.wrQLenPdf::13                      1                       # What write queue length does an incoming req see
system.mem_ctrls.wrQLenPdf::14                      1                       # What write queue length does an incoming req see
system.mem_ctrls.wrQLenPdf::15                     32                       # What write queue length does an incoming req see
system.mem_ctrls.wrQLenPdf::16                     33                       # What write queue length does an incoming req see
system.mem_ctrls.wrQLenPdf::17                     95                       # What write queue length does an incoming req see
system.mem_ctrls.wrQLenPdf::18                    125                       # What write queue length does an incoming req see
system.mem_ctrls.wrQLenPdf::19                    143                       # What write queue length does an incoming req see
system.mem_ctrls.wrQLenPdf::20                    147                       # What write queue length does an incoming req see
system.mem_ctrls.wrQLenPdf::21                    152                       # What write queue length does an incoming req see
system.mem_ctrls.wrQLenPdf::22                    156                       # What write queue length does an incoming req see
system.mem_ctrls.wrQLenPdf::23                    150                       # What write queue length does an incoming req see
system.mem_ctrls.wrQLenPdf::24                    151                       # What write queue length does an incoming req see
system.mem_ctrls.wrQLenPdf::25                    150                       # What write queue length does an incoming req see
system.mem_ctrls.wrQLenPdf::26                    163                       # What write queue length does an incoming req see
system.mem_ctrls.wrQLenPdf::27                    160                       # What write queue length does an incoming req see
system.mem_ctrls.wrQLenPdf::28                    155                       # What write queue length does an incoming req see
system.mem_ctrls.wrQLenPdf::29                    160                       # What write queue length does an incoming req see
system.mem_ctrls.wrQLenPdf::30                    148                       # What write queue length does an incoming req see
system.mem_ctrls.wrQLenPdf::31                    145                       # What write queue length does an incoming req see
system.mem_ctrls.wrQLenPdf::32                    145                       # What write queue length does an incoming req see
system.mem_ctrls.wrQLenPdf::33                      0                       # What write queue length does an incoming req see
system.mem_ctrls.wrQLenPdf::34                      0                       # What write queue length does an incoming req see
system.mem_ctrls.wrQLenPdf::35                      0                       # What write queue length does an incoming req see
system.mem_ctrls.wrQLenPdf::36                      0                       # What write queue length does an incoming req see
system.mem_ctrls.wrQLenPdf::37                      0                       # What write queue length does an incoming req see
system.mem_ctrls.wrQLenPdf::38                      0                       # What write queue length does an incoming req see
system.mem_ctrls.wrQLenPdf::39                      0                       # What write queue length does an incoming req see
system.mem_ctrls.wrQLenPdf::40                      0                       # What write queue length does an incoming req see
system.mem_ctrls.wrQLenPdf::41                      0                       # What write queue length does an incoming req see
system.mem_ctrls.wrQLenPdf::42                      0                       # What write queue length does an incoming req see
system.mem_ctrls.wrQLenPdf::43                      0                       # What write queue length does an incoming req see
system.mem_ctrls.wrQLenPdf::44                      0                       # What write queue length does an incoming req see
system.mem_ctrls.wrQLenPdf::45                      0                       # What write queue length does an incoming req see
system.mem_ctrls.wrQLenPdf::46                      0                       # What write queue length does an incoming req see
system.mem_ctrls.wrQLenPdf::47                      0                       # What write queue length does an incoming req see
system.mem_ctrls.wrQLenPdf::48                      0                       # What write queue length does an incoming req see
system.mem_ctrls.wrQLenPdf::49                      0                       # What write queue length does an incoming req see
system.mem_ctrls.wrQLenPdf::50                      0                       # What write queue length does an incoming req see
system.mem_ctrls.wrQLenPdf::51                      0                       # What write queue length does an incoming req see
system.mem_ctrls.wrQLenPdf::52                      0                       # What write queue length does an incoming req see
system.mem_ctrls.wrQLenPdf::53                      0                       # What write queue length does an incoming req see
system.mem_ctrls.wrQLenPdf::54                      0                       # What write queue length does an incoming req see
system.mem_ctrls.wrQLenPdf::55                      0                       # What write queue length does an incoming req see
system.mem_ctrls.wrQLenPdf::56                      0                       # What write queue length does an incoming req see
system.mem_ctrls.wrQLenPdf::57                      0                       # What write queue length does an incoming req see
system.mem_ctrls.wrQLenPdf::58                      0                       # What write queue length does an incoming req see
system.mem_ctrls.wrQLenPdf::59                      0                       # What write queue length does an incoming req see
system.mem_ctrls.wrQLenPdf::60                      0                       # What write queue length does an incoming req see
system.mem_ctrls.wrQLenPdf::61                      0                       # What write queue length does an incoming req see
system.mem_ctrls.wrQLenPdf::62                      0                       # What write queue length does an incoming req see
system.mem_ctrls.wrQLenPdf::63                      0                       # What write queue length does an incoming req see
system.mem_ctrls.bytesPerActivate::samples         2056                       # Bytes accessed per row activation
system.mem_ctrls.bytesPerActivate::mean    239.813230                       # Bytes accessed per row activation
system.mem_ctrls.bytesPerActivate::gmean   145.608506                       # Bytes accessed per row activation
system.mem_ctrls.bytesPerActivate::stdev   279.880733                       # Bytes accessed per row activation
system.mem_ctrls.bytesPerActivate::0-127          933     45.38%     45.38% # Bytes accessed per row activation
system.mem_ctrls.bytesPerActivate::128-255          524     25.49%     70.87% # Bytes accessed per row activation
system.mem_ctrls.bytesPerActivate::256-383          195      9.48%     80.35% # Bytes accessed per row activation
system.mem_ctrls.bytesPerActivate::384-511           85      4.13%     84.48% # Bytes accessed per row activation
system.mem_ctrls.bytesPerActivate::512-639           79      3.84%     88.33% # Bytes accessed per row activation
system.mem_ctrls.bytesPerActivate::640-767           45      2.19%     90.52% # Bytes accessed per row activation
system.mem_ctrls.bytesPerActivate::768-895           28      1.36%     91.88% # Bytes accessed per row activation
system.mem_ctrls.bytesPerActivate::896-1023           20      0.97%     92.85% # Bytes accessed per row activation
system.mem_ctrls.bytesPerActivate::1024-1151          147      7.15%    100.00% # Bytes accessed per row activation
system.mem_ctrls.bytesPerActivate::total         2056                       # Bytes accessed per row activation
system.mem_ctrls.rdPerTurnAround::samples          145                       # Reads before turning the bus around for writes
system.mem_ctrls.rdPerTurnAround::mean      36.462069                       # Reads before turning the bus around for writes
system.mem_ctrls.rdPerTurnAround::gmean     31.029499                       # Reads before turning the bus around for writes
system.mem_ctrls.rdPerTurnAround::stdev     23.959462                       # Reads before turning the bus around for writes
system.mem_ctrls.rdPerTurnAround::8-15              5      3.45%      3.45% # Reads before turning the bus around for writes
system.mem_ctrls.rdPerTurnAround::16-23            45     31.03%     34.48% # Reads before turning the bus around for writes
system.mem_ctrls.rdPerTurnAround::24-31            33     22.76%     57.24% # Reads before turning the bus around for writes
system.mem_ctrls.rdPerTurnAround::32-39            18     12.41%     69.66% # Reads before turning the bus around for writes
system.mem_ctrls.rdPerTurnAround::40-47            13      8.97%     78.62% # Reads before turning the bus around for writes
system.mem_ctrls.rdPerTurnAround::48-55            10      6.90%     85.52% # Reads before turning the bus around for writes
system.mem_ctrls.rdPerTurnAround::56-63             4      2.76%     88.28% # Reads before turning the bus around for writes
system.mem_ctrls.rdPerTurnAround::64-71             6      4.14%     92.41% # Reads before turning the bus around for writes
system.mem_ctrls.rdPerTurnAround::72-79             1      0.69%     93.10% # Reads before turning the bus around for writes
system.mem_ctrls.rdPerTurnAround::80-87             3      2.07%     95.17% # Reads before turning the bus around for writes
system.mem_ctrls.rdPerTurnAround::96-103            2      1.38%     96.55% # Reads before turning the bus around for writes
system.mem_ctrls.rdPerTurnAround::104-111            3      2.07%     98.62% # Reads before turning the bus around for writes
system.mem_ctrls.rdPerTurnAround::128-135            1      0.69%     99.31% # Reads before turning the bus around for writes
system.mem_ctrls.rdPerTurnAround::136-143            1      0.69%    100.00% # Reads before turning the bus around for writes
system.mem_ctrls.rdPerTurnAround::total           145                       # Reads before turning the bus around for writes
system.mem_ctrls.wrPerTurnAround::samples          145                       # Writes before turning the bus around for reads
system.mem_ctrls.wrPerTurnAround::mean      16.531034                       # Writes before turning the bus around for reads
system.mem_ctrls.wrPerTurnAround::gmean     16.500657                       # Writes before turning the bus around for reads
system.mem_ctrls.wrPerTurnAround::stdev      1.041201                       # Writes before turning the bus around for reads
system.mem_ctrls.wrPerTurnAround::16              112     77.24%     77.24% # Writes before turning the bus around for reads
system.mem_ctrls.wrPerTurnAround::17                1      0.69%     77.93% # Writes before turning the bus around for reads
system.mem_ctrls.wrPerTurnAround::18               23     15.86%     93.79% # Writes before turning the bus around for reads
system.mem_ctrls.wrPerTurnAround::19                7      4.83%     98.62% # Writes before turning the bus around for reads
system.mem_ctrls.wrPerTurnAround::20                1      0.69%     99.31% # Writes before turning the bus around for reads
system.mem_ctrls.wrPerTurnAround::21                1      0.69%    100.00% # Writes before turning the bus around for reads
system.mem_ctrls.wrPerTurnAround::total           145                       # Writes before turning the bus around for reads
system.mem_ctrls.totQLat                     74241000                       # Total ticks spent queuing
system.mem_ctrls.totMemAccLat               173803500                       # Total ticks spent from burst creation until serviced by the DRAM
system.mem_ctrls.totBusLat                   26550000                       # Total ticks spent in databus transfers
system.mem_ctrls.avgQLat                     13981.36                       # Average queueing delay per DRAM burst
system.mem_ctrls.avgBusLat                    5000.00                       # Average bus latency per DRAM burst
system.mem_ctrls.avgMemAccLat                32731.36                       # Average memory access latency per DRAM burst
system.mem_ctrls.avgRdBW                       510.57                       # Average DRAM read bandwidth in MiByte/s
system.mem_ctrls.avgWrBW                       230.48                       # Average achieved write bandwidth in MiByte/s
system.mem_ctrls.avgRdBWSys                    512.11                       # Average system read bandwidth in MiByte/s
system.mem_ctrls.avgWrBWSys                    233.17                       # Average system write bandwidth in MiByte/s
system.mem_ctrls.peakBW                      12800.00                       # Theoretical peak bandwidth in MiByte/s
system.mem_ctrls.busUtil                         5.79                       # Data bus utilization in percentage
system.mem_ctrls.busUtilRead                     3.99                       # Data bus utilization in percentage for reads
system.mem_ctrls.busUtilWrite                    1.80                       # Data bus utilization in percentage for writes
system.mem_ctrls.avgRdQLen                       1.38                       # Average read queue length when enqueuing
system.mem_ctrls.avgWrQLen                      24.90                       # Average write queue length when enqueuing
system.mem_ctrls.readRowHits                     4057                       # Number of row buffer hits during reads
system.mem_ctrls.writeRowHits                    1591                       # Number of row buffer hits during writes
system.mem_ctrls.readRowHitRate                 76.40                       # Row buffer hit rate for reads
system.mem_ctrls.writeRowHitRate                65.61                       # Row buffer hit rate for writes
system.mem_ctrls.avgGap                      85823.51                       # Average gap between requests
system.mem_ctrls.pageHitRate                    73.02                       # Row buffer hit rate, read and write combined
system.mem_ctrls_0.actEnergy                  7680960                       # Energy for activate commands per rank (pJ)
system.mem_ctrls_0.preEnergy                  4191000                       # Energy for precharge commands per rank (pJ)
system.mem_ctrls_0.readEnergy                19710600                       # Energy for read commands per rank (pJ)
system.mem_ctrls_0.writeEnergy                9532080                       # Energy for write commands per rank (pJ)
system.mem_ctrls_0.refreshEnergy             43227600                       # Energy for refresh commands per rank (pJ)
system.mem_ctrls_0.actBackEnergy            366443595                       # Energy for active background per rank (pJ)
system.mem_ctrls_0.preBackEnergy             75813000                       # Energy for precharge background per rank (pJ)
system.mem_ctrls_0.totalEnergy              526598835                       # Total energy per rank (pJ)
system.mem_ctrls_0.averagePower            795.356886                       # Core power per rank (mW)
system.mem_ctrls_0.memoryStateTime::IDLE    125150750                       # Time in different power states
system.mem_ctrls_0.memoryStateTime::REF      22100000                       # Time in different power states
system.mem_ctrls_0.memoryStateTime::PRE_PDN            0                       # Time in different power states
system.mem_ctrls_0.memoryStateTime::ACT     516122250                       # Time in different power states
system.mem_ctrls_0.memoryStateTime::ACT_PDN            0                       # Time in different power states
system.mem_ctrls_1.actEnergy                  7862400                       # Energy for activate commands per rank (pJ)
system.mem_ctrls_1.preEnergy                  4290000                       # Energy for precharge commands per rank (pJ)
system.mem_ctrls_1.readEnergy                21684000                       # Energy for read commands per rank (pJ)
system.mem_ctrls_1.writeEnergy                6000480                       # Energy for write commands per rank (pJ)
system.mem_ctrls_1.refreshEnergy             43227600                       # Energy for refresh commands per rank (pJ)
system.mem_ctrls_1.actBackEnergy            400407615                       # Energy for active background per rank (pJ)
system.mem_ctrls_1.preBackEnergy             46020000                       # Energy for precharge background per rank (pJ)
system.mem_ctrls_1.totalEnergy              529492095                       # Total energy per rank (pJ)
system.mem_ctrls_1.averagePower            799.726767                       # Core power per rank (mW)
system.mem_ctrls_1.memoryStateTime::IDLE     75181250                       # Time in different power states
system.mem_ctrls_1.memoryStateTime::REF      22100000                       # Time in different power states
system.mem_ctrls_1.memoryStateTime::PRE_PDN            0                       # Time in different power states
system.mem_ctrls_1.memoryStateTime::ACT     565930750                       # Time in different power states
system.mem_ctrls_1.memoryStateTime::ACT_PDN            0                       # Time in different power states
system.cpu_voltage_domain.voltage                   1                       # Voltage in Volts
system.cpu_clk_domain.clock                       500                       # Clock period in ticks
system.cpu.dtb.fetch_hits                           0                       # ITB hits
system.cpu.dtb.fetch_misses                         0                       # ITB misses
system.cpu.dtb.fetch_acv                            0                       # ITB acv
system.cpu.dtb.fetch_accesses                       0                       # ITB accesses
system.cpu.dtb.read_hits                            0                       # DTB read hits
system.cpu.dtb.read_misses                          0                       # DTB read misses
system.cpu.dtb.read_acv                             0                       # DTB read access violations
system.cpu.dtb.read_accesses                        0                       # DTB read accesses
system.cpu.dtb.write_hits                           0                       # DTB write hits
system.cpu.dtb.write_misses                         0                       # DTB write misses
system.cpu.dtb.write_acv                            0                       # DTB write access violations
system.cpu.dtb.write_accesses                       0                       # DTB write accesses
system.cpu.dtb.data_hits                            0                       # DTB hits
system.cpu.dtb.data_misses                          0                       # DTB misses
system.cpu.dtb.data_acv                             0                       # DTB access violations
system.cpu.dtb.data_accesses                        0                       # DTB accesses
system.cpu.itb.fetch_hits                           0                       # ITB hits
system.cpu.itb.fetch_misses                         0                       # ITB misses
system.cpu.itb.fetch_acv                            0                       # ITB acv
system.cpu.itb.fetch_accesses                       0                       # ITB accesses
system.cpu.itb.read_hits                            0                       # DTB read hits
system.cpu.itb.read_misses                          0                       # DTB read misses
system.cpu.itb.read_acv                             0                       # DTB read access violations
system.cpu.itb.read_accesses                        0                       # DTB read accesses
system.cpu.itb.write_hits                           0                       # DTB write hits
system.cpu.itb.write_misses                         0                       # DTB write misses
system.cpu.itb.write_acv                            0                       # DTB write access violations
system.cpu.itb.write_accesses                       0                       # DTB write accesses
system.cpu.itb.data_hits                            0                       # DTB hits
system.cpu.itb.data_misses                          0                       # DTB misses
system.cpu.itb.data_acv                             0                       # DTB access violations
system.cpu.itb.data_accesses                        0                       # DTB accesses
system.cpu.numCycles                                0                       # number of cpu cycles simulated
system.cpu.numWorkItemsStarted                      0                       # number of work items this cpu started
system.cpu.numWorkItemsCompleted                    0                       # number of work items this cpu completed
system.cpu.committedInsts                           0                       # Number of instructions committed
system.cpu.committedOps                             0                       # Number of ops (including micro ops) committed
system.cpu.num_int_alu_accesses                     0                       # Number of integer alu accesses
system.cpu.num_fp_alu_accesses                      0                       # Number of float alu accesses
system.cpu.num_func_calls                           0                       # number of times a function call or return occured
system.cpu.num_conditional_control_insts            0                       # number of instructions that are conditional controls
system.cpu.num_int_insts                            0                       # number of integer instructions
system.cpu.num_fp_insts                             0                       # number of float instructions
system.cpu.num_int_register_reads                   0                       # number of times the integer registers were read
system.cpu.num_int_register_writes                  0                       # number of times the integer registers were written
system.cpu.num_fp_register_reads                    0                       # number of times the floating registers were read
system.cpu.num_fp_register_writes                   0                       # number of times the floating registers were written
system.cpu.num_mem_refs                             0                       # number of memory refs
system.cpu.num_load_insts                           0                       # Number of load instructions
system.cpu.num_store_insts                          0                       # Number of store instructions
system.cpu.num_idle_cycles                          0                       # Number of idle cycles
system.cpu.num_busy_cycles                          0                       # Number of busy cycles
system.cpu.not_idle_fraction                        1                       # Percentage of non-idle cycles
system.cpu.idle_fraction                            0                       # Percentage of idle cycles
system.cpu.op_class::No_OpClass                     0                       # Class of executed instruction
system.cpu.op_class::IntAlu                         0                       # Class of executed instruction
system.cpu.op_class::IntMult                        0                       # Class of executed instruction
system.cpu.op_class::IntDiv                         0                       # Class of executed instruction
system.cpu.op_class::FloatAdd                       0                       # Class of executed instruction
system.cpu.op_class::FloatCmp                       0                       # Class of executed instruction
system.cpu.op_class::FloatCvt                       0                       # Class of executed instruction
system.cpu.op_class::FloatMult                      0                       # Class of executed instruction
system.cpu.op_class::FloatDiv                       0                       # Class of executed instruction
system.cpu.op_class::FloatSqrt                      0                       # Class of executed instruction
system.cpu.op_class::SimdAdd                        0                       # Class of executed instruction
system.cpu.op_class::SimdAddAcc                     0                       # Class of executed instruction
system.cpu.op_class::SimdAlu                        0                       # Class of executed instruction
system.cpu.op_class::SimdCmp                        0                       # Class of executed instruction
system.cpu.op_class::SimdCvt                        0                       # Class of executed instruction
system.cpu.op_class::SimdMisc                       0                       # Class of executed instruction
system.cpu.op_class::SimdMult                       0                       # Class of executed instruction
system.cpu.op_class::SimdMultAcc                    0                       # Class of executed instruction
system.cpu.op_class::SimdShift                      0                       # Class of executed instruction
system.cpu.op_class::SimdShiftAcc                   0                       # Class of executed instruction
system.cpu.op_class::SimdSqrt                       0                       # Class of executed instruction
system.cpu.op_class::SimdFloatAdd                   0                       # Class of executed instruction
system.cpu.op_class::SimdFloatAlu                   0                       # Class of executed instruction
system.cpu.op_class::SimdFloatCmp                   0                       # Class of executed instruction
system.cpu.op_class::SimdFloatCvt                   0                       # Class of executed instruction
system.cpu.op_class::SimdFloatDiv                   0                       # Class of executed instruction
system.cpu.op_class::SimdFloatMisc                  0                       # Class of executed instruction
system.cpu.op_class::SimdFloatMult                  0                       # Class of executed instruction
system.cpu.op_class::SimdFloatMultAcc               0                       # Class of executed instruction
system.cpu.op_class::SimdFloatSqrt                  0                       # Class of executed instruction
system.cpu.op_class::MemRead                        0                       # Class of executed instruction
system.cpu.op_class::MemWrite                       0                       # Class of executed instruction
system.cpu.op_class::IprAccess                      0                       # Class of executed instruction
system.cpu.op_class::InstPrefetch                   0                       # Class of executed instruction
system.cpu.op_class::total                          0                       # Class of executed instruction
system.cpu.kern.inst.arm                            0                       # number of arm instructions executed
system.cpu.kern.inst.quiesce                        0                       # number of quiesce instructions executed
system.cpu.kern.inst.hwrei                       2781                       # number of hwrei instructions executed
system.cpu.kern.ipl_count::0                      635     49.15%     49.15% # number of times we switched to this ipl
system.cpu.kern.ipl_count::22                       1      0.08%     49.23% # number of times we switched to this ipl
system.cpu.kern.ipl_count::31                     656     50.77%    100.00% # number of times we switched to this ipl
system.cpu.kern.ipl_count::total                 1292                       # number of times we switched to this ipl
system.cpu.kern.ipl_good::0                       633     49.96%     49.96% # number of times we switched to this ipl from a different ipl
system.cpu.kern.ipl_good::22                        1      0.08%     50.04% # number of times we switched to this ipl from a different ipl
system.cpu.kern.ipl_good::31                      633     49.96%    100.00% # number of times we switched to this ipl from a different ipl
system.cpu.kern.ipl_good::total                  1267                       # number of times we switched to this ipl from a different ipl
system.cpu.kern.ipl_ticks::0                600688000     90.31%     90.31% # number of cycles we spent at this ipl
system.cpu.kern.ipl_ticks::22                 1503000      0.23%     90.54% # number of cycles we spent at this ipl
system.cpu.kern.ipl_ticks::31                62920000      9.46%    100.00% # number of cycles we spent at this ipl
system.cpu.kern.ipl_ticks::total            665111000                       # number of cycles we spent at this ipl
system.cpu.kern.ipl_used::0                  0.996850                       # fraction of swpipl calls that actually changed the ipl
system.cpu.kern.ipl_used::22                        1                       # fraction of swpipl calls that actually changed the ipl
system.cpu.kern.ipl_used::31                 0.964939                       # fraction of swpipl calls that actually changed the ipl
system.cpu.kern.ipl_used::total              0.980650                       # fraction of swpipl calls that actually changed the ipl
system.cpu.kern.syscall::2                          1      5.56%      5.56% # number of syscalls executed
system.cpu.kern.syscall::3                          2     11.11%     16.67% # number of syscalls executed
system.cpu.kern.syscall::6                          2     11.11%     27.78% # number of syscalls executed
system.cpu.kern.syscall::17                         1      5.56%     33.33% # number of syscalls executed
system.cpu.kern.syscall::19                         1      5.56%     38.89% # number of syscalls executed
system.cpu.kern.syscall::33                         1      5.56%     44.44% # number of syscalls executed
system.cpu.kern.syscall::45                         3     16.67%     61.11% # number of syscalls executed
system.cpu.kern.syscall::48                         1      5.56%     66.67% # number of syscalls executed
system.cpu.kern.syscall::59                         1      5.56%     72.22% # number of syscalls executed
system.cpu.kern.syscall::71                         4     22.22%     94.44% # number of syscalls executed
system.cpu.kern.syscall::74                         1      5.56%    100.00% # number of syscalls executed
system.cpu.kern.syscall::total                     18                       # number of syscalls executed
system.cpu.kern.callpal::swpctx                   118      8.10%      8.10% # number of callpals executed
system.cpu.kern.callpal::tbi                        6      0.41%      8.51% # number of callpals executed
system.cpu.kern.callpal::swpipl                  1107     75.98%     84.49% # number of callpals executed
system.cpu.kern.callpal::rdps                       3      0.21%     84.69% # number of callpals executed
system.cpu.kern.callpal::wrusp                      1      0.07%     84.76% # number of callpals executed
system.cpu.kern.callpal::rdusp                      1      0.07%     84.83% # number of callpals executed
system.cpu.kern.callpal::rti                      184     12.63%     97.46% # number of callpals executed
system.cpu.kern.callpal::callsys                   33      2.26%     99.73% # number of callpals executed
system.cpu.kern.callpal::imb                        4      0.27%    100.00% # number of callpals executed
system.cpu.kern.callpal::total                   1457                       # number of callpals executed
system.cpu.kern.mode_switch::kernel               302                       # number of protection mode switches
system.cpu.kern.mode_switch::user                 181                       # number of protection mode switches
system.cpu.kern.mode_switch::idle                   0                       # number of protection mode switches
system.cpu.kern.mode_good::kernel                 181                      
system.cpu.kern.mode_good::user                   181                      
system.cpu.kern.mode_good::idle                     0                      
system.cpu.kern.mode_switch_good::kernel     0.599338                       # fraction of useful protection mode switches
system.cpu.kern.mode_switch_good::user              1                       # fraction of useful protection mode switches
system.cpu.kern.mode_switch_good::idle            nan                       # fraction of useful protection mode switches
system.cpu.kern.mode_switch_good::total      0.749482                       # fraction of useful protection mode switches
system.cpu.kern.mode_ticks::kernel          432650500     65.05%     65.05% # number of ticks spent at the given mode
system.cpu.kern.mode_ticks::user            232453500     34.95%    100.00% # number of ticks spent at the given mode
system.cpu.kern.mode_ticks::idle                    0      0.00%    100.00% # number of ticks spent at the given mode
system.cpu.kern.swap_context                      118                       # number of times the context was actually changed
system.cpu.dcache.tags.replacements             18290                       # number of replacements
system.cpu.dcache.tags.tagsinuse                  512                       # Cycle average of tags in use
system.cpu.dcache.tags.total_refs              199729                       # Total number of references to valid blocks.
system.cpu.dcache.tags.sampled_refs             18290                       # Sample count of references to valid blocks.
system.cpu.dcache.tags.avg_refs             10.920120                       # Average number of references to valid blocks.
system.cpu.dcache.tags.warmup_cycle                 0                       # Cycle when the warmup percentage was hit.
system.cpu.dcache.tags.occ_blocks::cpu.data    26.380407                       # Average occupied blocks per requestor
system.cpu.dcache.tags.occ_blocks::switch_cpus.data   485.619593                       # Average occupied blocks per requestor
system.cpu.dcache.tags.occ_percent::cpu.data     0.051524                       # Average percentage of cache occupancy
system.cpu.dcache.tags.occ_percent::switch_cpus.data     0.948476                       # Average percentage of cache occupancy
system.cpu.dcache.tags.occ_percent::total            1                       # Average percentage of cache occupancy
system.cpu.dcache.tags.occ_task_id_blocks::1024          512                       # Occupied blocks per task id
system.cpu.dcache.tags.age_task_id_blocks_1024::0          341                       # Occupied blocks per task id
system.cpu.dcache.tags.age_task_id_blocks_1024::1          170                       # Occupied blocks per task id
system.cpu.dcache.tags.age_task_id_blocks_1024::2            1                       # Occupied blocks per task id
system.cpu.dcache.tags.occ_task_id_percent::1024            1                       # Percentage of cache occupancy per task id
system.cpu.dcache.tags.tag_accesses           1181730                       # Number of tag accesses
system.cpu.dcache.tags.data_accesses          1181730                       # Number of data accesses
system.cpu.dcache.ReadReq_hits::switch_cpus.data       133256                       # number of ReadReq hits
system.cpu.dcache.ReadReq_hits::total          133256                       # number of ReadReq hits
system.cpu.dcache.WriteReq_hits::switch_cpus.data        59009                       # number of WriteReq hits
system.cpu.dcache.WriteReq_hits::total          59009                       # number of WriteReq hits
system.cpu.dcache.LoadLockedReq_hits::switch_cpus.data         2248                       # number of LoadLockedReq hits
system.cpu.dcache.LoadLockedReq_hits::total         2248                       # number of LoadLockedReq hits
system.cpu.dcache.StoreCondReq_hits::switch_cpus.data         2378                       # number of StoreCondReq hits
system.cpu.dcache.StoreCondReq_hits::total         2378                       # number of StoreCondReq hits
system.cpu.dcache.demand_hits::switch_cpus.data       192265                       # number of demand (read+write) hits
system.cpu.dcache.demand_hits::total           192265                       # number of demand (read+write) hits
system.cpu.dcache.overall_hits::switch_cpus.data       192265                       # number of overall hits
system.cpu.dcache.overall_hits::total          192265                       # number of overall hits
system.cpu.dcache.ReadReq_misses::switch_cpus.data        26347                       # number of ReadReq misses
system.cpu.dcache.ReadReq_misses::total         26347                       # number of ReadReq misses
system.cpu.dcache.WriteReq_misses::switch_cpus.data        67228                       # number of WriteReq misses
system.cpu.dcache.WriteReq_misses::total        67228                       # number of WriteReq misses
system.cpu.dcache.LoadLockedReq_misses::switch_cpus.data          394                       # number of LoadLockedReq misses
system.cpu.dcache.LoadLockedReq_misses::total          394                       # number of LoadLockedReq misses
system.cpu.dcache.demand_misses::switch_cpus.data        93575                       # number of demand (read+write) misses
system.cpu.dcache.demand_misses::total          93575                       # number of demand (read+write) misses
system.cpu.dcache.overall_misses::switch_cpus.data        93575                       # number of overall misses
system.cpu.dcache.overall_misses::total         93575                       # number of overall misses
system.cpu.dcache.ReadReq_miss_latency::switch_cpus.data    699960494                       # number of ReadReq miss cycles
system.cpu.dcache.ReadReq_miss_latency::total    699960494                       # number of ReadReq miss cycles
system.cpu.dcache.WriteReq_miss_latency::switch_cpus.data   1804011255                       # number of WriteReq miss cycles
system.cpu.dcache.WriteReq_miss_latency::total   1804011255                       # number of WriteReq miss cycles
system.cpu.dcache.LoadLockedReq_miss_latency::switch_cpus.data      6868000                       # number of LoadLockedReq miss cycles
system.cpu.dcache.LoadLockedReq_miss_latency::total      6868000                       # number of LoadLockedReq miss cycles
system.cpu.dcache.demand_miss_latency::switch_cpus.data   2503971749                       # number of demand (read+write) miss cycles
system.cpu.dcache.demand_miss_latency::total   2503971749                       # number of demand (read+write) miss cycles
system.cpu.dcache.overall_miss_latency::switch_cpus.data   2503971749                       # number of overall miss cycles
system.cpu.dcache.overall_miss_latency::total   2503971749                       # number of overall miss cycles
system.cpu.dcache.ReadReq_accesses::switch_cpus.data       159603                       # number of ReadReq accesses(hits+misses)
system.cpu.dcache.ReadReq_accesses::total       159603                       # number of ReadReq accesses(hits+misses)
system.cpu.dcache.WriteReq_accesses::switch_cpus.data       126237                       # number of WriteReq accesses(hits+misses)
system.cpu.dcache.WriteReq_accesses::total       126237                       # number of WriteReq accesses(hits+misses)
system.cpu.dcache.LoadLockedReq_accesses::switch_cpus.data         2642                       # number of LoadLockedReq accesses(hits+misses)
system.cpu.dcache.LoadLockedReq_accesses::total         2642                       # number of LoadLockedReq accesses(hits+misses)
system.cpu.dcache.StoreCondReq_accesses::switch_cpus.data         2378                       # number of StoreCondReq accesses(hits+misses)
system.cpu.dcache.StoreCondReq_accesses::total         2378                       # number of StoreCondReq accesses(hits+misses)
system.cpu.dcache.demand_accesses::switch_cpus.data       285840                       # number of demand (read+write) accesses
system.cpu.dcache.demand_accesses::total       285840                       # number of demand (read+write) accesses
system.cpu.dcache.overall_accesses::switch_cpus.data       285840                       # number of overall (read+write) accesses
system.cpu.dcache.overall_accesses::total       285840                       # number of overall (read+write) accesses
system.cpu.dcache.ReadReq_miss_rate::switch_cpus.data     0.165078                       # miss rate for ReadReq accesses
system.cpu.dcache.ReadReq_miss_rate::total     0.165078                       # miss rate for ReadReq accesses
system.cpu.dcache.WriteReq_miss_rate::switch_cpus.data     0.532554                       # miss rate for WriteReq accesses
system.cpu.dcache.WriteReq_miss_rate::total     0.532554                       # miss rate for WriteReq accesses
system.cpu.dcache.LoadLockedReq_miss_rate::switch_cpus.data     0.149129                       # miss rate for LoadLockedReq accesses
system.cpu.dcache.LoadLockedReq_miss_rate::total     0.149129                       # miss rate for LoadLockedReq accesses
system.cpu.dcache.demand_miss_rate::switch_cpus.data     0.327368                       # miss rate for demand accesses
system.cpu.dcache.demand_miss_rate::total     0.327368                       # miss rate for demand accesses
system.cpu.dcache.overall_miss_rate::switch_cpus.data     0.327368                       # miss rate for overall accesses
system.cpu.dcache.overall_miss_rate::total     0.327368                       # miss rate for overall accesses
system.cpu.dcache.ReadReq_avg_miss_latency::switch_cpus.data 26566.990321                       # average ReadReq miss latency
system.cpu.dcache.ReadReq_avg_miss_latency::total 26566.990321                       # average ReadReq miss latency
system.cpu.dcache.WriteReq_avg_miss_latency::switch_cpus.data 26834.224653                       # average WriteReq miss latency
system.cpu.dcache.WriteReq_avg_miss_latency::total 26834.224653                       # average WriteReq miss latency
system.cpu.dcache.LoadLockedReq_avg_miss_latency::switch_cpus.data 17431.472081                       # average LoadLockedReq miss latency
system.cpu.dcache.LoadLockedReq_avg_miss_latency::total 17431.472081                       # average LoadLockedReq miss latency
system.cpu.dcache.demand_avg_miss_latency::switch_cpus.data 26758.982089                       # average overall miss latency
system.cpu.dcache.demand_avg_miss_latency::total 26758.982089                       # average overall miss latency
system.cpu.dcache.overall_avg_miss_latency::switch_cpus.data 26758.982089                       # average overall miss latency
system.cpu.dcache.overall_avg_miss_latency::total 26758.982089                       # average overall miss latency
system.cpu.dcache.blocked_cycles::no_mshrs        74721                       # number of cycles access was blocked
system.cpu.dcache.blocked_cycles::no_targets           87                       # number of cycles access was blocked
system.cpu.dcache.blocked::no_mshrs              4592                       # number of cycles access was blocked
system.cpu.dcache.blocked::no_targets               2                       # number of cycles access was blocked
system.cpu.dcache.avg_blocked_cycles::no_mshrs    16.271995                       # average number of cycles each access was blocked
system.cpu.dcache.avg_blocked_cycles::no_targets    43.500000                       # average number of cycles each access was blocked
system.cpu.dcache.fast_writes                       0                       # number of fast writes performed
system.cpu.dcache.cache_copies                      0                       # number of cache copies performed
system.cpu.dcache.writebacks::writebacks        13036                       # number of writebacks
system.cpu.dcache.writebacks::total             13036                       # number of writebacks
system.cpu.dcache.ReadReq_mshr_hits::switch_cpus.data        17375                       # number of ReadReq MSHR hits
system.cpu.dcache.ReadReq_mshr_hits::total        17375                       # number of ReadReq MSHR hits
system.cpu.dcache.WriteReq_mshr_hits::switch_cpus.data        58130                       # number of WriteReq MSHR hits
system.cpu.dcache.WriteReq_mshr_hits::total        58130                       # number of WriteReq MSHR hits
system.cpu.dcache.LoadLockedReq_mshr_hits::switch_cpus.data          172                       # number of LoadLockedReq MSHR hits
system.cpu.dcache.LoadLockedReq_mshr_hits::total          172                       # number of LoadLockedReq MSHR hits
system.cpu.dcache.demand_mshr_hits::switch_cpus.data        75505                       # number of demand (read+write) MSHR hits
system.cpu.dcache.demand_mshr_hits::total        75505                       # number of demand (read+write) MSHR hits
system.cpu.dcache.overall_mshr_hits::switch_cpus.data        75505                       # number of overall MSHR hits
system.cpu.dcache.overall_mshr_hits::total        75505                       # number of overall MSHR hits
system.cpu.dcache.ReadReq_mshr_misses::switch_cpus.data         8972                       # number of ReadReq MSHR misses
system.cpu.dcache.ReadReq_mshr_misses::total         8972                       # number of ReadReq MSHR misses
system.cpu.dcache.WriteReq_mshr_misses::switch_cpus.data         9098                       # number of WriteReq MSHR misses
system.cpu.dcache.WriteReq_mshr_misses::total         9098                       # number of WriteReq MSHR misses
system.cpu.dcache.LoadLockedReq_mshr_misses::switch_cpus.data          222                       # number of LoadLockedReq MSHR misses
system.cpu.dcache.LoadLockedReq_mshr_misses::total          222                       # number of LoadLockedReq MSHR misses
system.cpu.dcache.demand_mshr_misses::switch_cpus.data        18070                       # number of demand (read+write) MSHR misses
system.cpu.dcache.demand_mshr_misses::total        18070                       # number of demand (read+write) MSHR misses
system.cpu.dcache.overall_mshr_misses::switch_cpus.data        18070                       # number of overall MSHR misses
system.cpu.dcache.overall_mshr_misses::total        18070                       # number of overall MSHR misses
system.cpu.dcache.WriteReq_mshr_uncacheable::switch_cpus.data            1                       # number of WriteReq MSHR uncacheable
system.cpu.dcache.WriteReq_mshr_uncacheable::total            1                       # number of WriteReq MSHR uncacheable
system.cpu.dcache.overall_mshr_uncacheable_misses::switch_cpus.data            1                       # number of overall MSHR uncacheable misses
system.cpu.dcache.overall_mshr_uncacheable_misses::total            1                       # number of overall MSHR uncacheable misses
system.cpu.dcache.ReadReq_mshr_miss_latency::switch_cpus.data    223575506                       # number of ReadReq MSHR miss cycles
system.cpu.dcache.ReadReq_mshr_miss_latency::total    223575506                       # number of ReadReq MSHR miss cycles
system.cpu.dcache.WriteReq_mshr_miss_latency::switch_cpus.data    248031557                       # number of WriteReq MSHR miss cycles
system.cpu.dcache.WriteReq_mshr_miss_latency::total    248031557                       # number of WriteReq MSHR miss cycles
system.cpu.dcache.LoadLockedReq_mshr_miss_latency::switch_cpus.data      3952750                       # number of LoadLockedReq MSHR miss cycles
system.cpu.dcache.LoadLockedReq_mshr_miss_latency::total      3952750                       # number of LoadLockedReq MSHR miss cycles
system.cpu.dcache.demand_mshr_miss_latency::switch_cpus.data    471607063                       # number of demand (read+write) MSHR miss cycles
system.cpu.dcache.demand_mshr_miss_latency::total    471607063                       # number of demand (read+write) MSHR miss cycles
system.cpu.dcache.overall_mshr_miss_latency::switch_cpus.data    471607063                       # number of overall MSHR miss cycles
system.cpu.dcache.overall_mshr_miss_latency::total    471607063                       # number of overall MSHR miss cycles
system.cpu.dcache.WriteReq_mshr_uncacheable_latency::switch_cpus.data       227500                       # number of WriteReq MSHR uncacheable cycles
system.cpu.dcache.WriteReq_mshr_uncacheable_latency::total       227500                       # number of WriteReq MSHR uncacheable cycles
system.cpu.dcache.overall_mshr_uncacheable_latency::switch_cpus.data       227500                       # number of overall MSHR uncacheable cycles
system.cpu.dcache.overall_mshr_uncacheable_latency::total       227500                       # number of overall MSHR uncacheable cycles
system.cpu.dcache.ReadReq_mshr_miss_rate::switch_cpus.data     0.056214                       # mshr miss rate for ReadReq accesses
system.cpu.dcache.ReadReq_mshr_miss_rate::total     0.056214                       # mshr miss rate for ReadReq accesses
system.cpu.dcache.WriteReq_mshr_miss_rate::switch_cpus.data     0.072071                       # mshr miss rate for WriteReq accesses
system.cpu.dcache.WriteReq_mshr_miss_rate::total     0.072071                       # mshr miss rate for WriteReq accesses
system.cpu.dcache.LoadLockedReq_mshr_miss_rate::switch_cpus.data     0.084027                       # mshr miss rate for LoadLockedReq accesses
system.cpu.dcache.LoadLockedReq_mshr_miss_rate::total     0.084027                       # mshr miss rate for LoadLockedReq accesses
system.cpu.dcache.demand_mshr_miss_rate::switch_cpus.data     0.063217                       # mshr miss rate for demand accesses
system.cpu.dcache.demand_mshr_miss_rate::total     0.063217                       # mshr miss rate for demand accesses
system.cpu.dcache.overall_mshr_miss_rate::switch_cpus.data     0.063217                       # mshr miss rate for overall accesses
system.cpu.dcache.overall_mshr_miss_rate::total     0.063217                       # mshr miss rate for overall accesses
system.cpu.dcache.ReadReq_avg_mshr_miss_latency::switch_cpus.data 24919.249443                       # average ReadReq mshr miss latency
system.cpu.dcache.ReadReq_avg_mshr_miss_latency::total 24919.249443                       # average ReadReq mshr miss latency
system.cpu.dcache.WriteReq_avg_mshr_miss_latency::switch_cpus.data 27262.206749                       # average WriteReq mshr miss latency
system.cpu.dcache.WriteReq_avg_mshr_miss_latency::total 27262.206749                       # average WriteReq mshr miss latency
system.cpu.dcache.LoadLockedReq_avg_mshr_miss_latency::switch_cpus.data 17805.180180                       # average LoadLockedReq mshr miss latency
system.cpu.dcache.LoadLockedReq_avg_mshr_miss_latency::total 17805.180180                       # average LoadLockedReq mshr miss latency
system.cpu.dcache.demand_avg_mshr_miss_latency::switch_cpus.data 26098.896680                       # average overall mshr miss latency
system.cpu.dcache.demand_avg_mshr_miss_latency::total 26098.896680                       # average overall mshr miss latency
system.cpu.dcache.overall_avg_mshr_miss_latency::switch_cpus.data 26098.896680                       # average overall mshr miss latency
system.cpu.dcache.overall_avg_mshr_miss_latency::total 26098.896680                       # average overall mshr miss latency
system.cpu.dcache.WriteReq_avg_mshr_uncacheable_latency::switch_cpus.data       227500                       # average WriteReq mshr uncacheable latency
system.cpu.dcache.WriteReq_avg_mshr_uncacheable_latency::total       227500                       # average WriteReq mshr uncacheable latency
system.cpu.dcache.overall_avg_mshr_uncacheable_latency::switch_cpus.data       227500                       # average overall mshr uncacheable latency
system.cpu.dcache.overall_avg_mshr_uncacheable_latency::total       227500                       # average overall mshr uncacheable latency
system.cpu.dcache.no_allocate_misses                0                       # Number of misses that were no-allocate
system.cpu.icache.tags.replacements             10398                       # number of replacements
system.cpu.icache.tags.tagsinuse           511.872170                       # Cycle average of tags in use
system.cpu.icache.tags.total_refs              363638                       # Total number of references to valid blocks.
system.cpu.icache.tags.sampled_refs             10398                       # Sample count of references to valid blocks.
system.cpu.icache.tags.avg_refs             34.971918                       # Average number of references to valid blocks.
system.cpu.icache.tags.warmup_cycle                 0                       # Cycle when the warmup percentage was hit.
system.cpu.icache.tags.occ_blocks::cpu.inst    22.791271                       # Average occupied blocks per requestor
system.cpu.icache.tags.occ_blocks::switch_cpus.inst   489.080899                       # Average occupied blocks per requestor
system.cpu.icache.tags.occ_percent::cpu.inst     0.044514                       # Average percentage of cache occupancy
system.cpu.icache.tags.occ_percent::switch_cpus.inst     0.955236                       # Average percentage of cache occupancy
system.cpu.icache.tags.occ_percent::total     0.999750                       # Average percentage of cache occupancy
system.cpu.icache.tags.occ_task_id_blocks::1024          511                       # Occupied blocks per task id
system.cpu.icache.tags.age_task_id_blocks_1024::0           67                       # Occupied blocks per task id
system.cpu.icache.tags.age_task_id_blocks_1024::1          116                       # Occupied blocks per task id
system.cpu.icache.tags.age_task_id_blocks_1024::2          328                       # Occupied blocks per task id
system.cpu.icache.tags.occ_task_id_percent::1024     0.998047                       # Percentage of cache occupancy per task id
system.cpu.icache.tags.tag_accesses            334387                       # Number of tag accesses
system.cpu.icache.tags.data_accesses           334387                       # Number of data accesses
system.cpu.icache.ReadReq_hits::switch_cpus.inst       150048                       # number of ReadReq hits
system.cpu.icache.ReadReq_hits::total          150048                       # number of ReadReq hits
system.cpu.icache.demand_hits::switch_cpus.inst       150048                       # number of demand (read+write) hits
system.cpu.icache.demand_hits::total           150048                       # number of demand (read+write) hits
system.cpu.icache.overall_hits::switch_cpus.inst       150048                       # number of overall hits
system.cpu.icache.overall_hits::total          150048                       # number of overall hits
system.cpu.icache.ReadReq_misses::switch_cpus.inst        11946                       # number of ReadReq misses
system.cpu.icache.ReadReq_misses::total         11946                       # number of ReadReq misses
system.cpu.icache.demand_misses::switch_cpus.inst        11946                       # number of demand (read+write) misses
system.cpu.icache.demand_misses::total          11946                       # number of demand (read+write) misses
system.cpu.icache.overall_misses::switch_cpus.inst        11946                       # number of overall misses
system.cpu.icache.overall_misses::total         11946                       # number of overall misses
system.cpu.icache.ReadReq_miss_latency::switch_cpus.inst    302727965                       # number of ReadReq miss cycles
system.cpu.icache.ReadReq_miss_latency::total    302727965                       # number of ReadReq miss cycles
system.cpu.icache.demand_miss_latency::switch_cpus.inst    302727965                       # number of demand (read+write) miss cycles
system.cpu.icache.demand_miss_latency::total    302727965                       # number of demand (read+write) miss cycles
system.cpu.icache.overall_miss_latency::switch_cpus.inst    302727965                       # number of overall miss cycles
system.cpu.icache.overall_miss_latency::total    302727965                       # number of overall miss cycles
system.cpu.icache.ReadReq_accesses::switch_cpus.inst       161994                       # number of ReadReq accesses(hits+misses)
system.cpu.icache.ReadReq_accesses::total       161994                       # number of ReadReq accesses(hits+misses)
system.cpu.icache.demand_accesses::switch_cpus.inst       161994                       # number of demand (read+write) accesses
system.cpu.icache.demand_accesses::total       161994                       # number of demand (read+write) accesses
system.cpu.icache.overall_accesses::switch_cpus.inst       161994                       # number of overall (read+write) accesses
system.cpu.icache.overall_accesses::total       161994                       # number of overall (read+write) accesses
system.cpu.icache.ReadReq_miss_rate::switch_cpus.inst     0.073743                       # miss rate for ReadReq accesses
system.cpu.icache.ReadReq_miss_rate::total     0.073743                       # miss rate for ReadReq accesses
system.cpu.icache.demand_miss_rate::switch_cpus.inst     0.073743                       # miss rate for demand accesses
system.cpu.icache.demand_miss_rate::total     0.073743                       # miss rate for demand accesses
system.cpu.icache.overall_miss_rate::switch_cpus.inst     0.073743                       # miss rate for overall accesses
system.cpu.icache.overall_miss_rate::total     0.073743                       # miss rate for overall accesses
system.cpu.icache.ReadReq_avg_miss_latency::switch_cpus.inst 25341.366566                       # average ReadReq miss latency
system.cpu.icache.ReadReq_avg_miss_latency::total 25341.366566                       # average ReadReq miss latency
system.cpu.icache.demand_avg_miss_latency::switch_cpus.inst 25341.366566                       # average overall miss latency
system.cpu.icache.demand_avg_miss_latency::total 25341.366566                       # average overall miss latency
system.cpu.icache.overall_avg_miss_latency::switch_cpus.inst 25341.366566                       # average overall miss latency
system.cpu.icache.overall_avg_miss_latency::total 25341.366566                       # average overall miss latency
system.cpu.icache.blocked_cycles::no_mshrs         1365                       # number of cycles access was blocked
system.cpu.icache.blocked_cycles::no_targets            0                       # number of cycles access was blocked
system.cpu.icache.blocked::no_mshrs                71                       # number of cycles access was blocked
system.cpu.icache.blocked::no_targets               0                       # number of cycles access was blocked
system.cpu.icache.avg_blocked_cycles::no_mshrs    19.225352                       # average number of cycles each access was blocked
system.cpu.icache.avg_blocked_cycles::no_targets          nan                       # average number of cycles each access was blocked
system.cpu.icache.fast_writes                       0                       # number of fast writes performed
system.cpu.icache.cache_copies                      0                       # number of cache copies performed
system.cpu.icache.ReadReq_mshr_hits::switch_cpus.inst         1547                       # number of ReadReq MSHR hits
system.cpu.icache.ReadReq_mshr_hits::total         1547                       # number of ReadReq MSHR hits
system.cpu.icache.demand_mshr_hits::switch_cpus.inst         1547                       # number of demand (read+write) MSHR hits
system.cpu.icache.demand_mshr_hits::total         1547                       # number of demand (read+write) MSHR hits
system.cpu.icache.overall_mshr_hits::switch_cpus.inst         1547                       # number of overall MSHR hits
system.cpu.icache.overall_mshr_hits::total         1547                       # number of overall MSHR hits
system.cpu.icache.ReadReq_mshr_misses::switch_cpus.inst        10399                       # number of ReadReq MSHR misses
system.cpu.icache.ReadReq_mshr_misses::total        10399                       # number of ReadReq MSHR misses
system.cpu.icache.demand_mshr_misses::switch_cpus.inst        10399                       # number of demand (read+write) MSHR misses
system.cpu.icache.demand_mshr_misses::total        10399                       # number of demand (read+write) MSHR misses
system.cpu.icache.overall_mshr_misses::switch_cpus.inst        10399                       # number of overall MSHR misses
system.cpu.icache.overall_mshr_misses::total        10399                       # number of overall MSHR misses
system.cpu.icache.ReadReq_mshr_miss_latency::switch_cpus.inst    244080770                       # number of ReadReq MSHR miss cycles
system.cpu.icache.ReadReq_mshr_miss_latency::total    244080770                       # number of ReadReq MSHR miss cycles
system.cpu.icache.demand_mshr_miss_latency::switch_cpus.inst    244080770                       # number of demand (read+write) MSHR miss cycles
system.cpu.icache.demand_mshr_miss_latency::total    244080770                       # number of demand (read+write) MSHR miss cycles
system.cpu.icache.overall_mshr_miss_latency::switch_cpus.inst    244080770                       # number of overall MSHR miss cycles
system.cpu.icache.overall_mshr_miss_latency::total    244080770                       # number of overall MSHR miss cycles
system.cpu.icache.ReadReq_mshr_miss_rate::switch_cpus.inst     0.064194                       # mshr miss rate for ReadReq accesses
system.cpu.icache.ReadReq_mshr_miss_rate::total     0.064194                       # mshr miss rate for ReadReq accesses
system.cpu.icache.demand_mshr_miss_rate::switch_cpus.inst     0.064194                       # mshr miss rate for demand accesses
system.cpu.icache.demand_mshr_miss_rate::total     0.064194                       # mshr miss rate for demand accesses
system.cpu.icache.overall_mshr_miss_rate::switch_cpus.inst     0.064194                       # mshr miss rate for overall accesses
system.cpu.icache.overall_mshr_miss_rate::total     0.064194                       # mshr miss rate for overall accesses
system.cpu.icache.ReadReq_avg_mshr_miss_latency::switch_cpus.inst 23471.561689                       # average ReadReq mshr miss latency
system.cpu.icache.ReadReq_avg_mshr_miss_latency::total 23471.561689                       # average ReadReq mshr miss latency
system.cpu.icache.demand_avg_mshr_miss_latency::switch_cpus.inst 23471.561689                       # average overall mshr miss latency
system.cpu.icache.demand_avg_mshr_miss_latency::total 23471.561689                       # average overall mshr miss latency
[...]
system.switch_cpus.iew.wb_fanout             0.751574                       # average fanout of values written-back
system.switch_cpus.iew.wb_penalized_rate            0                       # fraction of instructions written-back that wrote to 'other' IQ
system.switch_cpus.commit.commitSquashedInsts   1210094446                       # The number of squashed insts skipped by commit
system.switch_cpus.commit.commitNonSpecStalls     91065222                       # The number of times commit has been forced to stall to communicate backwards
system.switch_cpus.commit.branchMispredicts     58551048                       # The number of times a branch was mispredicted
system.switch_cpus.commit.committed_per_cycle::samples   6220641100                       # Number of insts commited each cycle
system.switch_cpus.commit.committed_per_cycle::mean     0.827394                       # Number of insts commited each cycle
system.switch_cpus.commit.committed_per_cycle::stdev     1.784572                       # Number of insts commited each cycle
system.switch_cpus.commit.committed_per_cycle::underflows            0      0.00%      0.00% # Number of insts commited each cycle
system.switch_cpus.commit.committed_per_cycle::0   4319368872     69.44%     69.44% # Number of insts commited each cycle
system.switch_cpus.commit.committed_per_cycle::1    864362720     13.90%     83.33% # Number of insts commited each cycle
system.switch_cpus.commit.committed_per_cycle::2    357514141      5.75%     89.08% # Number of insts commited each cycle
system.switch_cpus.commit.committed_per_cycle::3    242127703      3.89%     92.97% # Number of insts commited each cycle
system.switch_cpus.commit.committed_per_cycle::4     68686715      1.10%     94.07% # Number of insts commited each cycle
system.switch_cpus.commit.committed_per_cycle::5     96580992      1.55%     95.63% # Number of insts commited each cycle
system.switch_cpus.commit.committed_per_cycle::6     30951381      0.50%     96.13% # Number of insts commited each cycle
system.switch_cpus.commit.committed_per_cycle::7     30604056      0.49%     96.62% # Number of insts commited each cycle
system.switch_cpus.commit.committed_per_cycle::8    210444520      3.38%    100.00% # Number of insts commited each cycle
system.switch_cpus.commit.committed_per_cycle::overflows            0      0.00%    100.00% # Number of insts commited each cycle
system.switch_cpus.commit.committed_per_cycle::min_value            0                       # Number of insts commited each cycle
system.switch_cpus.commit.committed_per_cycle::max_value            8                       # Number of insts commited each cycle
system.switch_cpus.commit.committed_per_cycle::total   6220641100                       # Number of insts commited each cycle
system.switch_cpus.commit.committedInsts   5146918769                       # Number of instructions committed
system.switch_cpus.commit.committedOps     5146918769                       # Number of ops (including micro ops) committed
system.switch_cpus.commit.swp_count                 0                       # Number of s/w prefetches committed
system.switch_cpus.commit.refs             1874832509                       # Number of memory references committed
system.switch_cpus.commit.loads            1107793682                       # Number of loads committed
system.switch_cpus.commit.membars            19844259                       # Number of memory barriers committed
system.switch_cpus.commit.branches          688621246                       # Number of branches committed
system.switch_cpus.commit.fp_insts            1807443                       # Number of committed floating point instructions.
system.switch_cpus.commit.int_insts        4846774791                       # Number of committed integer instructions.
system.switch_cpus.commit.function_calls     23408955                       # Number of function calls committed.
system.switch_cpus.commit.op_class_0::No_OpClass    149856510      2.91%      2.91% # Class of committed instruction
system.switch_cpus.commit.op_class_0::IntAlu   2835799402     55.10%     58.01% # Class of committed instruction
system.switch_cpus.commit.op_class_0::IntMult      1239051      0.02%     58.03% # Class of committed instruction
system.switch_cpus.commit.op_class_0::IntDiv            0      0.00%     58.03% # Class of committed instruction
system.switch_cpus.commit.op_class_0::FloatAdd       803643      0.02%     58.05% # Class of committed instruction
system.switch_cpus.commit.op_class_0::FloatCmp          525      0.00%     58.05% # Class of committed instruction
system.switch_cpus.commit.op_class_0::FloatCvt       299019      0.01%     58.05% # Class of committed instruction
system.switch_cpus.commit.op_class_0::FloatMult            7      0.00%     58.05% # Class of committed instruction
system.switch_cpus.commit.op_class_0::FloatDiv        99673      0.00%     58.06% # Class of committed instruction
system.switch_cpus.commit.op_class_0::FloatSqrt            0      0.00%     58.06% # Class of committed instruction
system.switch_cpus.commit.op_class_0::SimdAdd            0      0.00%     58.06% # Class of committed instruction
system.switch_cpus.commit.op_class_0::SimdAddAcc            0      0.00%     58.06% # Class of committed instruction
system.switch_cpus.commit.op_class_0::SimdAlu            0      0.00%     58.06% # Class of committed instruction
system.switch_cpus.commit.op_class_0::SimdCmp            0      0.00%     58.06% # Class of committed instruction
system.switch_cpus.commit.op_class_0::SimdCvt            0      0.00%     58.06% # Class of committed instruction
system.switch_cpus.commit.op_class_0::SimdMisc            0      0.00%     58.06% # Class of committed instruction
system.switch_cpus.commit.op_class_0::SimdMult            0      0.00%     58.06% # Class of committed instruction
system.switch_cpus.commit.op_class_0::SimdMultAcc            0      0.00%     58.06% # Class of committed instruction
system.switch_cpus.commit.op_class_0::SimdShift            0      0.00%     58.06% # Class of committed instruction
system.switch_cpus.commit.op_class_0::SimdShiftAcc            0      0.00%     58.06% # Class of committed instruction
system.switch_cpus.commit.op_class_0::SimdSqrt            0      0.00%     58.06% # Class of committed instruction
system.switch_cpus.commit.op_class_0::SimdFloatAdd            0      0.00%     58.06% # Class of committed instruction
system.switch_cpus.commit.op_class_0::SimdFloatAlu            0      0.00%     58.06% # Class of committed instruction
system.switch_cpus.commit.op_class_0::SimdFloatCmp            0      0.00%     58.06% # Class of committed instruction
system.switch_cpus.commit.op_class_0::SimdFloatCvt            0      0.00%     58.06% # Class of committed instruction
system.switch_cpus.commit.op_class_0::SimdFloatDiv            0      0.00%     58.06% # Class of committed instruction
system.switch_cpus.commit.op_class_0::SimdFloatMisc            0      0.00%     58.06% # Class of committed instruction
system.switch_cpus.commit.op_class_0::SimdFloatMult            0      0.00%     58.06% # Class of committed instruction
system.switch_cpus.commit.op_class_0::SimdFloatMultAcc            0      0.00%     58.06% # Class of committed instruction
system.switch_cpus.commit.op_class_0::SimdFloatSqrt            0      0.00%     58.06% # Class of committed instruction
system.switch_cpus.commit.op_class_0::MemRead   1127637941     21.91%     79.97% # Class of committed instruction
system.switch_cpus.commit.op_class_0::MemWrite    767053361     14.90%     94.87% # Class of committed instruction
system.switch_cpus.commit.op_class_0::IprAccess    264129637      5.13%    100.00% # Class of committed instruction
system.switch_cpus.commit.op_class_0::InstPrefetch            0      0.00%    100.00% # Class of committed instruction
system.switch_cpus.commit.op_class_0::total   5146918769                       # Class of committed instruction
system.switch_cpus.commit.bw_lim_events     210444520                       # number cycles where commit BW limit reached
system.switch_cpus.rob.rob_reads          12212423098                       # The number of ROB reads
system.switch_cpus.rob.rob_writes         12897118847                       # The number of ROB writes
system.switch_cpus.timesIdled                 1092891                       # Number of times that the entire CPU went into an idle state and unscheduled itself
system.switch_cpus.idleCycles                 5011429                       # Total number of cycles that the CPU has spent unscheduled due to idling
system.switch_cpus.quiesceCycles              5367413                       # Total number of cycles that CPU has spent quiesced or waiting for an interrupt
system.switch_cpus.committedInsts          4997261606                       # Number of Instructions Simulated
system.switch_cpus.committedOps            4997261606                       # Number of Ops (including micro ops) Simulated
system.switch_cpus.cpi                       1.282408                       # CPI: Cycles Per Instruction
system.switch_cpus.cpi_total                 1.282408                       # CPI: Total CPI of All Threads
system.switch_cpus.ipc                       0.779783                       # IPC: Instructions Per Cycle
system.switch_cpus.ipc_total                 0.779783                       # IPC: Total IPC of All Threads
system.switch_cpus.int_regfile_reads       7604390997                       # number of integer regfile reads
system.switch_cpus.int_regfile_writes      4075554260                       # number of integer regfile writes
system.switch_cpus.fp_regfile_reads           1052975                       # number of floating regfile reads
system.switch_cpus.fp_regfile_writes          1001528                       # number of floating regfile writes
system.switch_cpus.misc_regfile_reads       268996387                       # number of misc regfile reads
system.switch_cpus.misc_regfile_writes      211532569                       # number of misc regfile writes
system.tol2bus.trans_dist::ReadReq           10031537                       # Transaction distribution
system.tol2bus.trans_dist::ReadResp          10031349                       # Transaction distribution
system.tol2bus.trans_dist::WriteReq              4931                       # Transaction distribution
system.tol2bus.trans_dist::WriteResp             4931                       # Transaction distribution
system.tol2bus.trans_dist::Writeback          4367589                       # Transaction distribution
system.tol2bus.trans_dist::WriteInvalidateReq       128806                       # Transaction distribution
system.tol2bus.trans_dist::UpgradeReq             881                       # Transaction distribution
system.tol2bus.trans_dist::SCUpgradeReq             1                       # Transaction distribution
system.tol2bus.trans_dist::UpgradeResp            882                       # Transaction distribution
system.tol2bus.trans_dist::ReadExReq          1814976                       # Transaction distribution
system.tol2bus.trans_dist::ReadExResp         1814976                       # Transaction distribution
system.tol2bus.pkt_count_system.cpu.icache.mem_side::system.l2.cpu_side      8099926                       # Packet count per connected master and slave (bytes)
system.tol2bus.pkt_count_system.cpu.dcache.mem_side::system.l2.cpu_side     19970968                       # Packet count per connected master and slave (bytes)
system.tol2bus.pkt_count::total              28070894                       # Packet count per connected master and slave (bytes)
system.tol2bus.pkt_size_system.cpu.icache.mem_side::system.l2.cpu_side    259168896                       # Cumulative packet size per connected master and slave (bytes)
system.tol2bus.pkt_size_system.cpu.dcache.mem_side::system.l2.cpu_side    778420330                       # Cumulative packet size per connected master and slave (bytes)
system.tol2bus.pkt_size::total             1037589226                       # Cumulative packet size per connected master and slave (bytes)
system.tol2bus.snoops                          130040                       # Total snoops (count)
system.tol2bus.snoop_fanout::samples         16348721                       # Request fanout histogram
system.tol2bus.snoop_fanout::mean            1.007895                       # Request fanout histogram
system.tol2bus.snoop_fanout::stdev           0.088501                       # Request fanout histogram
system.tol2bus.snoop_fanout::underflows             0      0.00%      0.00% # Request fanout histogram
system.tol2bus.snoop_fanout::0                      0      0.00%      0.00% # Request fanout histogram
system.tol2bus.snoop_fanout::1               16219653     99.21%     99.21% # Request fanout histogram
system.tol2bus.snoop_fanout::2                 129068      0.79%    100.00% # Request fanout histogram
system.tol2bus.snoop_fanout::overflows              0      0.00%    100.00% # Request fanout histogram
system.tol2bus.snoop_fanout::min_value              1                       # Request fanout histogram
system.tol2bus.snoop_fanout::max_value              2                       # Request fanout histogram
system.tol2bus.snoop_fanout::total           16348721                       # Request fanout histogram
system.tol2bus.reqLayer0.occupancy        12479881000                       # Layer occupancy (ticks)
system.tol2bus.reqLayer0.utilization              0.4                       # Layer utilization (%)
system.tol2bus.snoopLayer0.occupancy           112500                       # Layer occupancy (ticks)
system.tol2bus.snoopLayer0.utilization            0.0                       # Layer utilization (%)
system.tol2bus.respLayer0.occupancy        6082978051                       # Layer occupancy (ticks)
system.tol2bus.respLayer0.utilization             0.2                       # Layer utilization (%)
system.tol2bus.respLayer1.occupancy       11974824208                       # Layer occupancy (ticks)
system.tol2bus.respLayer1.utilization             0.4                       # Layer utilization (%)
system.tsunami.ethernet.descDMAReads                0                       # Number of descriptors the device read w/ DMA
system.tsunami.ethernet.descDMAWrites               0                       # Number of descriptors the device wrote w/ DMA
system.tsunami.ethernet.descDmaReadBytes            0                       # number of descriptor bytes read w/ DMA
system.tsunami.ethernet.descDmaWriteBytes            0                       # number of descriptor bytes write w/ DMA
system.tsunami.ethernet.postedSwi                   0                       # number of software interrupts posted to CPU
system.tsunami.ethernet.coalescedSwi              nan                       # average number of Swi's coalesced into each post
system.tsunami.ethernet.totalSwi                    0                       # total number of Swi written to ISR
system.tsunami.ethernet.postedRxIdle                0                       # number of rxIdle interrupts posted to CPU
system.tsunami.ethernet.coalescedRxIdle           nan                       # average number of RxIdle's coalesced into each post
system.tsunami.ethernet.totalRxIdle                 0                       # total number of RxIdle written to ISR
system.tsunami.ethernet.postedRxOk                  0                       # number of RxOk interrupts posted to CPU
system.tsunami.ethernet.coalescedRxOk             nan                       # average number of RxOk's coalesced into each post
system.tsunami.ethernet.totalRxOk                   0                       # total number of RxOk written to ISR
system.tsunami.ethernet.postedRxDesc                0                       # number of RxDesc interrupts posted to CPU
system.tsunami.ethernet.coalescedRxDesc           nan                       # average number of RxDesc's coalesced into each post
system.tsunami.ethernet.totalRxDesc                 0                       # total number of RxDesc written to ISR
system.tsunami.ethernet.postedTxOk                  0                       # number of TxOk interrupts posted to CPU
system.tsunami.ethernet.coalescedTxOk             nan                       # average number of TxOk's coalesced into each post
system.tsunami.ethernet.totalTxOk                   0                       # total number of TxOk written to ISR
system.tsunami.ethernet.postedTxIdle                0                       # number of TxIdle interrupts posted to CPU
system.tsunami.ethernet.coalescedTxIdle           nan                       # average number of TxIdle's coalesced into each post
system.tsunami.ethernet.totalTxIdle                 0                       # total number of TxIdle written to ISR
system.tsunami.ethernet.postedTxDesc                0                       # number of TxDesc interrupts posted to CPU
system.tsunami.ethernet.coalescedTxDesc           nan                       # average number of TxDesc's coalesced into each post
system.tsunami.ethernet.totalTxDesc                 0                       # total number of TxDesc written to ISR
system.tsunami.ethernet.postedRxOrn                 0                       # number of RxOrn posted to CPU
system.tsunami.ethernet.coalescedRxOrn            nan                       # average number of RxOrn's coalesced into each post
system.tsunami.ethernet.totalRxOrn                  0                       # total number of RxOrn written to ISR
system.tsunami.ethernet.coalescedTotal            nan                       # average number of interrupts coalesced into each post
system.tsunami.ethernet.postedInterrupts            0                       # number of posts to CPU
system.tsunami.ethernet.droppedPackets              0                       # number of packets dropped
system.switch_cpus.kern.inst.arm                    0                       # number of arm instructions executed
system.switch_cpus.kern.inst.quiesce                0                       # number of quiesce instructions executed
system.switch_cpus.kern.inst.hwrei                  0                       # number of hwrei instructions executed
system.switch_cpus.kern.mode_switch::kernel            0                       # number of protection mode switches
system.switch_cpus.kern.mode_switch::user            0                       # number of protection mode switches
system.switch_cpus.kern.mode_switch::idle            0                       # number of protection mode switches
system.switch_cpus.kern.mode_good::kernel            0                      
system.switch_cpus.kern.mode_good::user             0                      
system.switch_cpus.kern.mode_good::idle             0                      
system.switch_cpus.kern.mode_switch_good::kernel          nan                       # fraction of useful protection mode switches
system.switch_cpus.kern.mode_switch_good::user          nan                       # fraction of useful protection mode switches
system.switch_cpus.kern.mode_switch_good::idle          nan                       # fraction of useful protection mode switches
system.switch_cpus.kern.mode_switch_good::total          nan                       # fraction of useful protection mode switches
system.switch_cpus.kern.mode_ticks::kernel            0                       # number of ticks spent at the given mode
system.switch_cpus.kern.mode_ticks::user            0                       # number of ticks spent at the given mode
system.switch_cpus.kern.mode_ticks::idle            0                       # number of ticks spent at the given mode
system.switch_cpus.kern.swap_context                0                       # number of times the context was actually changed

---------- End Simulation Statistics   ----------
