
---------- Begin Simulation Statistics ----------
sim_seconds                                  0.000664                       # Number of seconds simulated
sim_ticks                                   664053500                       # Number of ticks simulated
final_tick                               2255103404500                       # Number of ticks from beginning of simulation (restored from checkpoints and never reset)
sim_freq                                 1000000000000                       # Frequency of simulated ticks
host_inst_rate                               38616874                       # Simulator instruction rate (inst/s)
host_op_rate                                 38616768                       # Simulator op (including micro ops) rate (op/s)
host_tick_rate                              261715891                       # Simulator tick rate (ticks/s)
host_mem_usage                                 736240                       # Number of bytes of host memory used
host_seconds                                     2.54                       # Real time elapsed on the host
sim_insts                                    97982357                       # Number of instructions simulated
sim_ops                                      97982357                       # Number of ops (including micro ops) simulated
system.voltage_domain.voltage                       1                       # Voltage in Volts
system.clk_domain.clock                          1000                       # Clock period in ticks
system.mem_ctrls.bytes_read::switch_cpus.inst       111808                       # Number of bytes read from this memory
system.mem_ctrls.bytes_read::switch_cpus.data       227712                       # Number of bytes read from this memory
system.mem_ctrls.bytes_read::total             339520                       # Number of bytes read from this memory
system.mem_ctrls.bytes_inst_read::switch_cpus.inst       111808                       # Number of instructions bytes read from this memory
system.mem_ctrls.bytes_inst_read::total        111808                       # Number of instructions bytes read from this memory
system.mem_ctrls.bytes_written::writebacks       154880                       # Number of bytes written to this memory
system.mem_ctrls.bytes_written::total          154880                       # Number of bytes written to this memory
system.mem_ctrls.num_reads::switch_cpus.inst         1747                       # Number of read requests responded to by this memory
system.mem_ctrls.num_reads::switch_cpus.data         3558                       # Number of read requests responded to by this memory
system.mem_ctrls.num_reads::total                5305                       # Number of read requests responded to by this memory
system.mem_ctrls.num_writes::writebacks          2420                       # Number of write requests responded to by this memory
system.mem_ctrls.num_writes::total               2420                       # Number of write requests responded to by this memory
system.mem_ctrls.bw_read::switch_cpus.inst    168371976                       # Total read bandwidth from this memory (bytes/s)
system.mem_ctrls.bw_read::switch_cpus.data    342912130                       # Total read bandwidth from this memory (bytes/s)
system.mem_ctrls.bw_read::total             511284106                       # Total read bandwidth from this memory (bytes/s)
system.mem_ctrls.bw_inst_read::switch_cpus.inst    168371976                       # Instruction read bandwidth from this memory (bytes/s)
system.mem_ctrls.bw_inst_read::total        168371976                       # Instruction read bandwidth from this memory (bytes/s)
system.mem_ctrls.bw_write::writebacks       233234220                       # Write bandwidth from this memory (bytes/s)
system.mem_ctrls.bw_write::total            233234220                       # Write bandwidth from this memory (bytes/s)
system.mem_ctrls.bw_total::writebacks       233234220                       # Total bandwidth to/from this memory (bytes/s)
system.mem_ctrls.bw_total::switch_cpus.inst    168371976                       # Total bandwidth to/from this memory (bytes/s)
system.mem_ctrls.bw_total::switch_cpus.data    342912130                       # Total bandwidth to/from this memory (bytes/s)
system.mem_ctrls.bw_total::total            744518326                       # Total bandwidth to/from this memory (bytes/s)
system.mem_ctrls.readReqs                        5305                       # Number of read requests accepted
system.mem_ctrls.writeReqs                       2420                       # Number of write requests accepted
system.mem_ctrls.readBursts                      5305                       # Number of DRAM read bursts, including those serviced by the write queue
system.mem_ctrls.writeBursts                     2420                       # Number of DRAM write bursts, including those merged in the write queue
system.mem_ctrls.bytesReadDRAM                 337088                       # Total number of bytes read from DRAM
system.mem_ctrls.bytesReadWrQ                    2432                       # Total number of bytes read from write queue
system.mem_ctrls.bytesWritten                  153344                       # Total number of bytes written to DRAM
system.mem_ctrls.bytesReadSys                  339520                       # Total read bytes from the system interface side
system.mem_ctrls.bytesWrittenSys               154880                       # Total written bytes from the system interface side
system.mem_ctrls.servicedByWrQ                     38                       # Number of DRAM read bursts serviced by the write queue
system.mem_ctrls.mergedWrBursts                     0                       # Number of DRAM write bursts merged with an existing one
system.mem_ctrls.neitherReadNorWriteReqs            0                       # Number of requests that are neither read nor write
system.mem_ctrls.perBankRdBursts::0               522                       # Per bank write bursts
system.mem_ctrls.perBankRdBursts::1               171                       # Per bank write bursts
system.mem_ctrls.perBankRdBursts::2               283                       # Per bank write bursts
system.mem_ctrls.perBankRdBursts::3               454                       # Per bank write bursts
system.mem_ctrls.perBankRdBursts::4               112                       # Per bank write bursts
system.mem_ctrls.perBankRdBursts::5               473                       # Per bank write bursts
system.mem_ctrls.perBankRdBursts::6               209                       # Per bank write bursts
system.mem_ctrls.perBankRdBursts::7               296                       # Per bank write bursts
system.mem_ctrls.perBankRdBursts::8               404                       # Per bank write bursts
system.mem_ctrls.perBankRdBursts::9               219                       # Per bank write bursts
system.mem_ctrls.perBankRdBursts::10              378                       # Per bank write bursts
system.mem_ctrls.perBankRdBursts::11              613                       # Per bank write bursts
system.mem_ctrls.perBankRdBursts::12              146                       # Per bank write bursts
system.mem_ctrls.perBankRdBursts::13              566                       # Per bank write bursts
system.mem_ctrls.perBankRdBursts::14              222                       # Per bank write bursts
system.mem_ctrls.perBankRdBursts::15              199                       # Per bank write bursts
system.mem_ctrls.perBankWrBursts::0               110                       # Per bank write bursts
system.mem_ctrls.perBankWrBursts::1                74                       # Per bank write bursts
system.mem_ctrls.perBankWrBursts::2               147                       # Per bank write bursts
system.mem_ctrls.perBankWrBursts::3               429                       # Per bank write bursts
system.mem_ctrls.perBankWrBursts::4                50                       # Per bank write bursts
system.mem_ctrls.perBankWrBursts::5               421                       # Per bank write bursts
system.mem_ctrls.perBankWrBursts::6               101                       # Per bank write bursts
system.mem_ctrls.perBankWrBursts::7               138                       # Per bank write bursts
system.mem_ctrls.perBankWrBursts::8               252                       # Per bank write bursts
system.mem_ctrls.perBankWrBursts::9                82                       # Per bank write bursts
system.mem_ctrls.perBankWrBursts::10              149                       # Per bank write bursts
system.mem_ctrls.perBankWrBursts::11              125                       # Per bank write bursts
system.mem_ctrls.perBankWrBursts::12               33                       # Per bank write bursts
system.mem_ctrls.perBankWrBursts::13              135                       # Per bank write bursts
system.mem_ctrls.perBankWrBursts::14               67                       # Per bank write bursts
system.mem_ctrls.perBankWrBursts::15               83                       # Per bank write bursts
system.mem_ctrls.numRdRetry                         0                       # Number of times read queue was full causing retry
system.mem_ctrls.numWrRetry                         0                       # Number of times write queue was full causing retry
system.mem_ctrls.totGap                     661757000                       # Total gap between requests
system.mem_ctrls.readPktSize::0                     0                       # Read request sizes (log2)
system.mem_ctrls.readPktSize::1                     0                       # Read request sizes (log2)
system.mem_ctrls.readPktSize::2                     0                       # Read request sizes (log2)
system.mem_ctrls.readPktSize::3                     0                       # Read request sizes (log2)
system.mem_ctrls.readPktSize::4                     0                       # Read request sizes (log2)
system.mem_ctrls.readPktSize::5                     0                       # Read request sizes (log2)
system.mem_ctrls.readPktSize::6                  5305                       # Read request sizes (log2)
system.mem_ctrls.writePktSize::0                    0                       # Write request sizes (log2)
system.mem_ctrls.writePktSize::1                    0                       # Write request sizes (log2)
system.mem_ctrls.writePktSize::2                    0                       # Write request sizes (log2)
system.mem_ctrls.writePktSize::3                    0                       # Write request sizes (log2)
system.mem_ctrls.writePktSize::4                    0                       # Write request sizes (log2)
system.mem_ctrls.writePktSize::5                    0                       # Write request sizes (log2)
system.mem_ctrls.writePktSize::6                 2420                       # Write request sizes (log2)
system.mem_ctrls.rdQLenPdf::0                    3261                       # What read queue length does an incoming req see
system.mem_ctrls.rdQLenPdf::1                    1250                       # What read queue length does an incoming req see
system.mem_ctrls.rdQLenPdf::2                     520                       # What read queue length does an incoming req see
system.mem_ctrls.rdQLenPdf::3                     236                       # What read queue length does an incoming req see
system.mem_ctrls.rdQLenPdf::4                       0                       # What read queue length does an incoming req see
system.mem_ctrls.rdQLenPdf::5                       0                       # What read queue length does an incoming req see
system.mem_ctrls.rdQLenPdf::6                       0                       # What read queue length does an incoming req see
system.mem_ctrls.rdQLenPdf::7                       0                       # What read queue length does an incoming req see
system.mem_ctrls.rdQLenPdf::8                       0                       # What read queue length does an incoming req see
system.mem_ctrls.rdQLenPdf::9                       0                       # What read queue length does an incoming req see
system.mem_ctrls.rdQLenPdf::10                      0                       # What read queue length does an incoming req see
system.mem_ctrls.rdQLenPdf::11                      0                       # What read queue length does an incoming req see
system.mem_ctrls.rdQLenPdf::12                      0                       # What read queue length does an incoming req see
system.mem_ctrls.rdQLenPdf::13                      0                       # What read queue length does an incoming req see
system.mem_ctrls.rdQLenPdf::14                      0                       # What read queue length does an incoming req see
system.mem_ctrls.rdQLenPdf::15                      0                       # What read queue length does an incoming req see
system.mem_ctrls.rdQLenPdf::16                      0                       # What read queue length does an incoming req see
system.mem_ctrls.rdQLenPdf::17                      0                       # What read queue length does an incoming req see
system.mem_ctrls.rdQLenPdf::18                      0                       # What read queue length does an incoming req see
system.mem_ctrls.rdQLenPdf::19                      0                       # What read queue length does an incoming req see
system.mem_ctrls.rdQLenPdf::20                      0                       # What read queue length does an incoming req see
system.mem_ctrls.rdQLenPdf::21                      0                       # What read queue length does an incoming req see
system.mem_ctrls.rdQLenPdf::22                      0                       # What read queue length does an incoming req see
system.mem_ctrls.rdQLenPdf::23                      0                       # What read queue length does an incoming req see
system.mem_ctrls.rdQLenPdf::24                      0                       # What read queue length does an incoming req see
system.mem_ctrls.rdQLenPdf::25                      0                       # What read queue length does an incoming req see
system.mem_ctrls.rdQLenPdf::26                      0                       # What read queue length does an incoming req see
system.mem_ctrls.rdQLenPdf::27                      0                       # What read queue length does an incoming req see
system.mem_ctrls.rdQLenPdf::28                      0                       # What read queue length does an incoming req see
system.mem_ctrls.rdQLenPdf::29                      0                       # What read queue length does an incoming req see
system.mem_ctrls.rdQLenPdf::30                      0                       # What read queue length does an incoming req see
system.mem_ctrls.rdQLenPdf::31                      0                       # What read queue length does an incoming req see
system.mem_ctrls.wrQLenPdf::0                       1                       # What write queue length does an incoming req see
system.mem_ctrls.wrQLenPdf::1                       1                       # What write queue length does an incoming req see
system.mem_ctrls.wrQLenPdf::2                       1                       # What write queue length does an incoming req see
system.mem_ctrls.wrQLenPdf::3                       1                       # What write queue length does an incoming req see
system.mem_ctrls.wrQLenPdf::4                       1                       # What write queue length does an incoming req see
system.mem_ctrls.wrQLenPdf::5                       1                       # What write queue length does an incoming req see
system.mem_ctrls.wrQLenPdf::6                       1                       # What write queue length does an incoming req see
system.mem_ctrls.wrQLenPdf::7                       1                       # What write queue length does an incoming req see
system.mem_ctrls.wrQLenPdf::8                       1                       # What write queue length does an incoming req see
system.mem_ctrls.wrQLenPdf::9                       1                       # What write queue length does an incoming req see
system.mem_ctrls.wrQLenPdf::10                      1                       # What write queue length does an incoming req see
system.mem_ctrls.wrQLenPdf::11                      1                       # What write queue length does an incoming req see
system.mem_ctrls.wrQLenPdf::12                      1                       # What write queue length does an incoming req see
system.mem_ctrls.wrQLenPdf::13                      1                       # What write queue length does an incoming req see
system.mem_ctrls.wrQLenPdf::14                      1                       # What write queue length does an incoming req see
system.mem_ctrls.wrQLenPdf::15                     39                       # What write queue length does an incoming req see
system.mem_ctrls.wrQLenPdf::16                     44                       # What write queue length does an incoming req see
system.mem_ctrls.wrQLenPdf::17                    103                       # What write queue length does an incoming req see
system.mem_ctrls.wrQLenPdf::18                    131                       # What write queue length does an incoming req see
system.mem_ctrls.wrQLenPdf::19                    144                       # What write queue length does an incoming req see
system.mem_ctrls.wrQLenPdf::20                    153                       # What write queue length does an incoming req see
system.mem_ctrls.wrQLenPdf::21                    148                       # What write queue length does an incoming req see
system.mem_ctrls.wrQLenPdf::22                    149                       # What write queue length does an incoming req see
system.mem_ctrls.wrQLenPdf::23                    150                       # What write queue length does an incoming req see
system.mem_ctrls.wrQLenPdf::24                    150                       # What write queue length does an incoming req see
system.mem_ctrls.wrQLenPdf::25                    152                       # What write queue length does an incoming req see
system.mem_ctrls.wrQLenPdf::26                    155                       # What write queue length does an incoming req see
system.mem_ctrls.wrQLenPdf::27                    145                       # What write queue length does an incoming req see
system.mem_ctrls.wrQLenPdf::28                    152                       # What write queue length does an incoming req see
system.mem_ctrls.wrQLenPdf::29                    157                       # What write queue length does an incoming req see
system.mem_ctrls.wrQLenPdf::30                    145                       # What write queue length does an incoming req see
system.mem_ctrls.wrQLenPdf::31                    144                       # What write queue length does an incoming req see
system.mem_ctrls.wrQLenPdf::32                    144                       # What write queue length does an incoming req see
system.mem_ctrls.wrQLenPdf::33                      0                       # What write queue length does an incoming req see
system.mem_ctrls.wrQLenPdf::34                      0                       # What write queue length does an incoming req see
system.mem_ctrls.wrQLenPdf::35                      0                       # What write queue length does an incoming req see
system.mem_ctrls.wrQLenPdf::36                      0                       # What write queue length does an incoming req see
system.mem_ctrls.wrQLenPdf::37                      0                       # What write queue length does an incoming req see
system.mem_ctrls.wrQLenPdf::38                      0                       # What write queue length does an incoming req see
system.mem_ctrls.wrQLenPdf::39                      0                       # What write queue length does an incoming req see
system.mem_ctrls.wrQLenPdf::40                      0                       # What write queue length does an incoming req see
system.mem_ctrls.wrQLenPdf::41                      0                       # What write queue length does an incoming req see
system.mem_ctrls.wrQLenPdf::42                      0                       # What write queue length does an incoming req see
system.mem_ctrls.wrQLenPdf::43                      0                       # What write queue length does an incoming req see
system.mem_ctrls.wrQLenPdf::44                      0                       # What write queue length does an incoming req see
system.mem_ctrls.wrQLenPdf::45                      0                       # What write queue length does an incoming req see
system.mem_ctrls.wrQLenPdf::46                      0                       # What write queue length does an incoming req see
system.mem_ctrls.wrQLenPdf::47                      0                       # What write queue length does an incoming req see
system.mem_ctrls.wrQLenPdf::48                      0                       # What write queue length does an incoming req see
system.mem_ctrls.wrQLenPdf::49                      0                       # What write queue length does an incoming req see
system.mem_ctrls.wrQLenPdf::50                      0                       # What write queue length does an incoming req see
system.mem_ctrls.wrQLenPdf::51                      0                       # What write queue length does an incoming req see
system.mem_ctrls.wrQLenPdf::52                      0                       # What write queue length does an incoming req see
system.mem_ctrls.wrQLenPdf::53                      0                       # What write queue length does an incoming req see
system.mem_ctrls.wrQLenPdf::54                      0                       # What write queue length does an incoming req see
system.mem_ctrls.wrQLenPdf::55                      0                       # What write queue length does an incoming req see
system.mem_ctrls.wrQLenPdf::56                      0                       # What write queue length does an incoming req see
system.mem_ctrls.wrQLenPdf::57                      0                       # What write queue length does an incoming req see
system.mem_ctrls.wrQLenPdf::58                      0                       # What write queue length does an incoming req see
system.mem_ctrls.wrQLenPdf::59                      0                       # What write queue length does an incoming req see
system.mem_ctrls.wrQLenPdf::60                      0                       # What write queue length does an incoming req see
system.mem_ctrls.wrQLenPdf::61                      0                       # What write queue length does an incoming req see
system.mem_ctrls.wrQLenPdf::62                      0                       # What write queue length does an incoming req see
system.mem_ctrls.wrQLenPdf::63                      0                       # What write queue length does an incoming req see
system.mem_ctrls.bytesPerActivate::samples         2070                       # Bytes accessed per row activation
system.mem_ctrls.bytesPerActivate::mean    236.923671                       # Bytes accessed per row activation
system.mem_ctrls.bytesPerActivate::gmean   143.594025                       # Bytes accessed per row activation
system.mem_ctrls.bytesPerActivate::stdev   278.856293                       # Bytes accessed per row activation
system.mem_ctrls.bytesPerActivate::0-127          958     46.28%     46.28% # Bytes accessed per row activation
system.mem_ctrls.bytesPerActivate::128-255          519     25.07%     71.35% # Bytes accessed per row activation
system.mem_ctrls.bytesPerActivate::256-383          193      9.32%     80.68% # Bytes accessed per row activation
system.mem_ctrls.bytesPerActivate::384-511           94      4.54%     85.22% # Bytes accessed per row activation
system.mem_ctrls.bytesPerActivate::512-639           64      3.09%     88.31% # Bytes accessed per row activation
system.mem_ctrls.bytesPerActivate::640-767           49      2.37%     90.68% # Bytes accessed per row activation
system.mem_ctrls.bytesPerActivate::768-895           22      1.06%     91.74% # Bytes accessed per row activation
system.mem_ctrls.bytesPerActivate::896-1023           28      1.35%     93.09% # Bytes accessed per row activation
system.mem_ctrls.bytesPerActivate::1024-1151          143      6.91%    100.00% # Bytes accessed per row activation
system.mem_ctrls.bytesPerActivate::total         2070                       # Bytes accessed per row activation
system.mem_ctrls.rdPerTurnAround::samples          144                       # Reads before turning the bus around for writes
system.mem_ctrls.rdPerTurnAround::mean      36.479167                       # Reads before turning the bus around for writes
system.mem_ctrls.rdPerTurnAround::gmean     31.084556                       # Reads before turning the bus around for writes
system.mem_ctrls.rdPerTurnAround::stdev     24.040167                       # Reads before turning the bus around for writes
system.mem_ctrls.rdPerTurnAround::0-7               1      0.69%      0.69% # Reads before turning the bus around for writes
system.mem_ctrls.rdPerTurnAround::8-15              5      3.47%      4.17% # Reads before turning the bus around for writes
system.mem_ctrls.rdPerTurnAround::16-23            43     29.86%     34.03% # Reads before turning the bus around for writes
system.mem_ctrls.rdPerTurnAround::24-31            35     24.31%     58.33% # Reads before turning the bus around for writes
system.mem_ctrls.rdPerTurnAround::32-39            15     10.42%     68.75% # Reads before turning the bus around for writes
system.mem_ctrls.rdPerTurnAround::40-47            14      9.72%     78.47% # Reads before turning the bus around for writes
system.mem_ctrls.rdPerTurnAround::48-55            12      8.33%     86.81% # Reads before turning the bus around for writes
system.mem_ctrls.rdPerTurnAround::56-63             5      3.47%     90.28% # Reads before turning the bus around for writes
system.mem_ctrls.rdPerTurnAround::64-71             4      2.78%     93.06% # Reads before turning the bus around for writes
system.mem_ctrls.rdPerTurnAround::80-87             2      1.39%     94.44% # Reads before turning the bus around for writes
system.mem_ctrls.rdPerTurnAround::96-103            3      2.08%     96.53% # Reads before turning the bus around for writes
system.mem_ctrls.rdPerTurnAround::104-111            1      0.69%     97.22% # Reads before turning the bus around for writes
system.mem_ctrls.rdPerTurnAround::112-119            1      0.69%     97.92% # Reads before turning the bus around for writes
system.mem_ctrls.rdPerTurnAround::120-127            2      1.39%     99.31% # Reads before turning the bus around for writes
system.mem_ctrls.rdPerTurnAround::136-143            1      0.69%    100.00% # Reads before turning the bus around for writes
system.mem_ctrls.rdPerTurnAround::total           144                       # Reads before turning the bus around for writes
system.mem_ctrls.wrPerTurnAround::samples          144                       # Writes before turning the bus around for reads
system.mem_ctrls.wrPerTurnAround::mean      16.638889                       # Writes before turning the bus around for reads
system.mem_ctrls.wrPerTurnAround::gmean     16.610575                       # Writes before turning the bus around for reads
system.mem_ctrls.wrPerTurnAround::stdev      0.993765                       # Writes before turning the bus around for reads
system.mem_ctrls.wrPerTurnAround::16               99     68.75%     68.75% # Writes before turning the bus around for reads
system.mem_ctrls.wrPerTurnAround::17                5      3.47%     72.22% # Writes before turning the bus around for reads
system.mem_ctrls.wrPerTurnAround::18               33     22.92%     95.14% # Writes before turning the bus around for reads
system.mem_ctrls.wrPerTurnAround::19                7      4.86%    100.00% # Writes before turning the bus around for reads
system.mem_ctrls.wrPerTurnAround::total           144                       # Writes before turning the bus around for reads
system.mem_ctrls.totQLat                     74414250                       # Total ticks spent queuing
system.mem_ctrls.totMemAccLat               173170500                       # Total ticks spent from burst creation until serviced by the DRAM
system.mem_ctrls.totBusLat                   26335000                       # Total ticks spent in databus transfers
system.mem_ctrls.avgQLat                     14128.39                       # Average queueing delay per DRAM burst
system.mem_ctrls.avgBusLat                    5000.00                       # Average bus latency per DRAM burst
system.mem_ctrls.avgMemAccLat                32878.39                       # Average memory access latency per DRAM burst
system.mem_ctrls.avgRdBW                       507.62                       # Average DRAM read bandwidth in MiByte/s
system.mem_ctrls.avgWrBW                       230.92                       # Average achieved write bandwidth in MiByte/s
system.mem_ctrls.avgRdBWSys                    511.28                       # Average system read bandwidth in MiByte/s
system.mem_ctrls.avgWrBWSys                    233.23                       # Average system write bandwidth in MiByte/s
system.mem_ctrls.peakBW                      12800.00                       # Theoretical peak bandwidth in MiByte/s
system.mem_ctrls.busUtil                         5.77                       # Data bus utilization in percentage
system.mem_ctrls.busUtilRead                     3.97                       # Data bus utilization in percentage for reads
system.mem_ctrls.busUtilWrite                    1.80                       # Data bus utilization in percentage for writes
system.mem_ctrls.avgRdQLen                       1.39                       # Average read queue length when enqueuing
system.mem_ctrls.avgWrQLen                      25.29                       # Average write queue length when enqueuing
system.mem_ctrls.readRowHits                     4019                       # Number of row buffer hits during reads
system.mem_ctrls.writeRowHits                    1574                       # Number of row buffer hits during writes
system.mem_ctrls.readRowHitRate                 76.31                       # Row buffer hit rate for reads
system.mem_ctrls.writeRowHitRate                65.04                       # Row buffer hit rate for writes
system.mem_ctrls.avgGap                      85664.34                       # Average gap between requests
system.mem_ctrls.pageHitRate                    72.76                       # Row buffer hit rate, read and write combined
system.mem_ctrls_0.actEnergy                  7824600                       # Energy for activate commands per rank (pJ)
system.mem_ctrls_0.preEnergy                  4269375                       # Energy for precharge commands per rank (pJ)
system.mem_ctrls_0.readEnergy                19656000                       # Energy for read commands per rank (pJ)
system.mem_ctrls_0.writeEnergy                9525600                       # Energy for write commands per rank (pJ)
system.mem_ctrls_0.refreshEnergy             43227600                       # Energy for refresh commands per rank (pJ)
system.mem_ctrls_0.actBackEnergy            381213720                       # Energy for active background per rank (pJ)
system.mem_ctrls_0.preBackEnergy             62856750                       # Energy for precharge background per rank (pJ)
system.mem_ctrls_0.totalEnergy              528573645                       # Total energy per rank (pJ)
system.mem_ctrls_0.averagePower            798.339572                       # Core power per rank (mW)
system.mem_ctrls_0.memoryStateTime::IDLE    102154250                       # Time in different power states
system.mem_ctrls_0.memoryStateTime::REF      22100000                       # Time in different power states
system.mem_ctrls_0.memoryStateTime::PRE_PDN            0                       # Time in different power states
system.mem_ctrls_0.memoryStateTime::ACT     537850750                       # Time in different power states
system.mem_ctrls_0.memoryStateTime::ACT_PDN            0                       # Time in different power states
system.mem_ctrls_1.actEnergy                  7824600                       # Energy for activate commands per rank (pJ)
system.mem_ctrls_1.preEnergy                  4269375                       # Energy for precharge commands per rank (pJ)
system.mem_ctrls_1.readEnergy                21426600                       # Energy for read commands per rank (pJ)
system.mem_ctrls_1.writeEnergy                6000480                       # Energy for write commands per rank (pJ)
system.mem_ctrls_1.refreshEnergy             43227600                       # Energy for refresh commands per rank (pJ)
system.mem_ctrls_1.actBackEnergy            394674840                       # Energy for active background per rank (pJ)
system.mem_ctrls_1.preBackEnergy             51048750                       # Energy for precharge background per rank (pJ)
system.mem_ctrls_1.totalEnergy              528472245                       # Total energy per rank (pJ)
system.mem_ctrls_1.averagePower            798.186421                       # Core power per rank (mW)
system.mem_ctrls_1.memoryStateTime::IDLE     82440750                       # Time in different power states
system.mem_ctrls_1.memoryStateTime::REF      22100000                       # Time in different power states
system.mem_ctrls_1.memoryStateTime::PRE_PDN            0                       # Time in different power states
system.mem_ctrls_1.memoryStateTime::ACT     557564250                       # Time in different power states
system.mem_ctrls_1.memoryStateTime::ACT_PDN            0                       # Time in different power states
system.cpu_voltage_domain.voltage                   1                       # Voltage in Volts
system.cpu_clk_domain.clock                       500                       # Clock period in ticks
system.cpu.dtb.fetch_hits                           0                       # ITB hits
system.cpu.dtb.fetch_misses                         0                       # ITB misses
system.cpu.dtb.fetch_acv                            0                       # ITB acv
system.cpu.dtb.fetch_accesses                       0                       # ITB accesses
system.cpu.dtb.read_hits                            0                       # DTB read hits
system.cpu.dtb.read_misses                          0                       # DTB read misses
system.cpu.dtb.read_acv                             0                       # DTB read access violations
system.cpu.dtb.read_accesses                        0                       # DTB read accesses
system.cpu.dtb.write_hits                           0                       # DTB write hits
system.cpu.dtb.write_misses                         0                       # DTB write misses
system.cpu.dtb.write_acv                            0                       # DTB write access violations
system.cpu.dtb.write_accesses                       0                       # DTB write accesses
system.cpu.dtb.data_hits                            0                       # DTB hits
system.cpu.dtb.data_misses                          0                       # DTB misses
system.cpu.dtb.data_acv                             0                       # DTB access violations
system.cpu.dtb.data_accesses                        0                       # DTB accesses
system.cpu.itb.fetch_hits                           0                       # ITB hits
system.cpu.itb.fetch_misses                         0                       # ITB misses
system.cpu.itb.fetch_acv                            0                       # ITB acv
system.cpu.itb.fetch_accesses                       0                       # ITB accesses
system.cpu.itb.read_hits                            0                       # DTB read hits
system.cpu.itb.read_misses                          0                       # DTB read misses
system.cpu.itb.read_acv                             0                       # DTB read access violations
system.cpu.itb.read_accesses                        0                       # DTB read accesses
system.cpu.itb.write_hits                           0                       # DTB write hits
system.cpu.itb.write_misses                         0                       # DTB write misses
system.cpu.itb.write_acv                            0                       # DTB write access violations
system.cpu.itb.write_accesses                       0                       # DTB write accesses
system.cpu.itb.data_hits                            0                       # DTB hits
system.cpu.itb.data_misses                          0                       # DTB misses
system.cpu.itb.data_acv                             0                       # DTB access violations
system.cpu.itb.data_accesses                        0                       # DTB accesses
system.cpu.numCycles                                0                       # number of cpu cycles simulated
system.cpu.numWorkItemsStarted                      0                       # number of work items this cpu started
system.cpu.numWorkItemsCompleted                    0                       # number of work items this cpu completed
system.cpu.committedInsts                           0                       # Number of instructions committed
system.cpu.committedOps                             0                       # Number of ops (including micro ops) committed
system.cpu.num_int_alu_accesses                     0                       # Number of integer alu accesses
system.cpu.num_fp_alu_accesses                      0                       # Number of float alu accesses
system.cpu.num_func_calls                           0                       # number of times a function call or return occured
system.cpu.num_conditional_control_insts            0                       # number of instructions that are conditional controls
system.cpu.num_int_insts                            0                       # number of integer instructions
system.cpu.num_fp_insts                             0                       # number of float instructions
system.cpu.num_int_register_reads                   0                       # number of times the integer registers were read
system.cpu.num_int_register_writes                  0                       # number of times the integer registers were written
system.cpu.num_fp_register_reads                    0                       # number of times the floating registers were read
system.cpu.num_fp_register_writes                   0                       # number of times the floating registers were written
system.cpu.num_mem_refs                             0                       # number of memory refs
system.cpu.num_load_insts                           0                       # Number of load instructions
system.cpu.num_store_insts                          0                       # Number of store instructions
system.cpu.num_idle_cycles                          0                       # Number of idle cycles
system.cpu.num_busy_cycles                          0                       # Number of busy cycles
system.cpu.not_idle_fraction                        1                       # Percentage of non-idle cycles
system.cpu.idle_fraction                            0                       # Percentage of idle cycles
system.cpu.op_class::No_OpClass                     0                       # Class of executed instruction
system.cpu.op_class::IntAlu                         0                       # Class of executed instruction
system.cpu.op_class::IntMult                        0                       # Class of executed instruction
system.cpu.op_class::IntDiv                         0                       # Class of executed instruction
system.cpu.op_class::FloatAdd                       0                       # Class of executed instruction
system.cpu.op_class::FloatCmp                       0                       # Class of executed instruction
system.cpu.op_class::FloatCvt                       0                       # Class of executed instruction
system.cpu.op_class::FloatMult                      0                       # Class of executed instruction
system.cpu.op_class::FloatDiv                       0                       # Class of executed instruction
system.cpu.op_class::FloatSqrt                      0                       # Class of executed instruction
system.cpu.op_class::SimdAdd                        0                       # Class of executed instruction
system.cpu.op_class::SimdAddAcc                     0                       # Class of executed instruction
system.cpu.op_class::SimdAlu                        0                       # Class of executed instruction
system.cpu.op_class::SimdCmp                        0                       # Class of executed instruction
system.cpu.op_class::SimdCvt                        0                       # Class of executed instruction
system.cpu.op_class::SimdMisc                       0                       # Class of executed instruction
system.cpu.op_class::SimdMult                       0                       # Class of executed instruction
system.cpu.op_class::SimdMultAcc                    0                       # Class of executed instruction
system.cpu.op_class::SimdShift                      0                       # Class of executed instruction
system.cpu.op_class::SimdShiftAcc                   0                       # Class of executed instruction
system.cpu.op_class::SimdSqrt                       0                       # Class of executed instruction
system.cpu.op_class::SimdFloatAdd                   0                       # Class of executed instruction
system.cpu.op_class::SimdFloatAlu                   0                       # Class of executed instruction
system.cpu.op_class::SimdFloatCmp                   0                       # Class of executed instruction
system.cpu.op_class::SimdFloatCvt                   0                       # Class of executed instruction
system.cpu.op_class::SimdFloatDiv                   0                       # Class of executed instruction
system.cpu.op_class::SimdFloatMisc                  0                       # Class of executed instruction
system.cpu.op_class::SimdFloatMult                  0                       # Class of executed instruction
system.cpu.op_class::SimdFloatMultAcc               0                       # Class of executed instruction
system.cpu.op_class::SimdFloatSqrt                  0                       # Class of executed instruction
system.cpu.op_class::MemRead                        0                       # Class of executed instruction
system.cpu.op_class::MemWrite                       0                       # Class of executed instruction
system.cpu.op_class::IprAccess                      0                       # Class of executed instruction
system.cpu.op_class::InstPrefetch                   0                       # Class of executed instruction
system.cpu.op_class::total                          0                       # Class of executed instruction
system.cpu.kern.inst.arm                            0                       # number of arm instructions executed
system.cpu.kern.inst.quiesce                        0                       # number of quiesce instructions executed
system.cpu.kern.inst.hwrei                       2781                       # number of hwrei instructions executed
system.cpu.kern.ipl_count::0                      635     49.15%     49.15% # number of times we switched to this ipl
system.cpu.kern.ipl_count::22                       1      0.08%     49.23% # number of times we switched to this ipl
system.cpu.kern.ipl_count::31                     656     50.77%    100.00% # number of times we switched to this ipl
system.cpu.kern.ipl_count::total                 1292                       # number of times we switched to this ipl
system.cpu.kern.ipl_good::0                       633     49.96%     49.96% # number of times we switched to this ipl from a different ipl
system.cpu.kern.ipl_good::22                        1      0.08%     50.04% # number of times we switched to this ipl from a different ipl
system.cpu.kern.ipl_good::31                      633     49.96%    100.00% # number of times we switched to this ipl from a different ipl
system.cpu.kern.ipl_good::total                  1267                       # number of times we switched to this ipl from a different ipl
system.cpu.kern.ipl_ticks::0                598773500     90.24%     90.24% # number of cycles we spent at this ipl
system.cpu.kern.ipl_ticks::22                 1469500      0.22%     90.46% # number of cycles we spent at this ipl
system.cpu.kern.ipl_ticks::31                63290500      9.54%    100.00% # number of cycles we spent at this ipl
system.cpu.kern.ipl_ticks::total            663533500                       # number of cycles we spent at this ipl
system.cpu.kern.ipl_used::0                  0.996850                       # fraction of swpipl calls that actually changed the ipl
system.cpu.kern.ipl_used::22                        1                       # fraction of swpipl calls that actually changed the ipl
system.cpu.kern.ipl_used::31                 0.964939                       # fraction of swpipl calls that actually changed the ipl
system.cpu.kern.ipl_used::total              0.980650                       # fraction of swpipl calls that actually changed the ipl
system.cpu.kern.syscall::2                          1      5.56%      5.56% # number of syscalls executed
system.cpu.kern.syscall::3                          2     11.11%     16.67% # number of syscalls executed
system.cpu.kern.syscall::6                          2     11.11%     27.78% # number of syscalls executed
system.cpu.kern.syscall::17                         1      5.56%     33.33% # number of syscalls executed
system.cpu.kern.syscall::19                         1      5.56%     38.89% # number of syscalls executed
system.cpu.kern.syscall::33                         1      5.56%     44.44% # number of syscalls executed
system.cpu.kern.syscall::45                         3     16.67%     61.11% # number of syscalls executed
system.cpu.kern.syscall::48                         1      5.56%     66.67% # number of syscalls executed
system.cpu.kern.syscall::59                         1      5.56%     72.22% # number of syscalls executed
system.cpu.kern.syscall::71                         4     22.22%     94.44% # number of syscalls executed
system.cpu.kern.syscall::74                         1      5.56%    100.00% # number of syscalls executed
system.cpu.kern.syscall::total                     18                       # number of syscalls executed
system.cpu.kern.callpal::swpctx                   118      8.10%      8.10% # number of callpals executed
system.cpu.kern.callpal::tbi                        6      0.41%      8.51% # number of callpals executed
system.cpu.kern.callpal::swpipl                  1107     75.98%     84.49% # number of callpals executed
system.cpu.kern.callpal::rdps                       3      0.21%     84.69% # number of callpals executed
system.cpu.kern.callpal::wrusp                      1      0.07%     84.76% # number of callpals executed
system.cpu.kern.callpal::rdusp                      1      0.07%     84.83% # number of callpals executed
system.cpu.kern.callpal::rti                      184     12.63%     97.46% # number of callpals executed
system.cpu.kern.callpal::callsys                   33      2.26%     99.73% # number of callpals executed
system.cpu.kern.callpal::imb                        4      0.27%    100.00% # number of callpals executed
system.cpu.kern.callpal::total                   1457                       # number of callpals executed
system.cpu.kern.mode_switch::kernel               302                       # number of protection mode switches
system.cpu.kern.mode_switch::user                 181                       # number of protection mode switches
system.cpu.kern.mode_switch::idle                   0                       # number of protection mode switches
system.cpu.kern.mode_good::kernel                 181                      
system.cpu.kern.mode_good::user                   181                      
system.cpu.kern.mode_good::idle                     0                      
system.cpu.kern.mode_switch_good::kernel     0.599338                       # fraction of useful protection mode switches
system.cpu.kern.mode_switch_good::user              1                       # fraction of useful protection mode switches
system.cpu.kern.mode_switch_good::idle            nan                       # fraction of useful protection mode switches
system.cpu.kern.mode_switch_good::total      0.749482                       # fraction of useful protection mode switches
system.cpu.kern.mode_ticks::kernel          433235500     65.29%     65.29% # number of ticks spent at the given mode
system.cpu.kern.mode_ticks::user            230291000     34.71%    100.00% # number of ticks spent at the given mode
system.cpu.kern.mode_ticks::idle                    0      0.00%    100.00% # number of ticks spent at the given mode
system.cpu.kern.swap_context                      118                       # number of times the context was actually changed
system.cpu.dcache.tags.replacements             18309                       # number of replacements
system.cpu.dcache.tags.tagsinuse                  512                       # Cycle average of tags in use
system.cpu.dcache.tags.total_refs              199478                       # Total number of references to valid blocks.
system.cpu.dcache.tags.sampled_refs             18309                       # Sample count of references to valid blocks.
system.cpu.dcache.tags.avg_refs             10.895079                       # Average number of references to valid blocks.
system.cpu.dcache.tags.warmup_cycle                 0                       # Cycle when the warmup percentage was hit.
system.cpu.dcache.tags.occ_blocks::cpu.data    26.029283                       # Average occupied blocks per requestor
system.cpu.dcache.tags.occ_blocks::switch_cpus.data   485.970717                       # Average occupied blocks per requestor
system.cpu.dcache.tags.occ_percent::cpu.data     0.050838                       # Average percentage of cache occupancy
system.cpu.dcache.tags.occ_percent::switch_cpus.data     0.949162                       # Average percentage of cache occupancy
system.cpu.dcache.tags.occ_percent::total            1                       # Average percentage of cache occupancy
system.cpu.dcache.tags.occ_task_id_blocks::1024          512                       # Occupied blocks per task id
system.cpu.dcache.tags.age_task_id_blocks_1024::0          340                       # Occupied blocks per task id
system.cpu.dcache.tags.age_task_id_blocks_1024::1          171                       # Occupied blocks per task id
system.cpu.dcache.tags.age_task_id_blocks_1024::2            1                       # Occupied blocks per task id
system.cpu.dcache.tags.occ_task_id_percent::1024            1                       # Percentage of cache occupancy per task id
system.cpu.dcache.tags.tag_accesses           1180969                       # Number of tag accesses
system.cpu.dcache.tags.data_accesses          1180969                       # Number of data accesses
system.cpu.dcache.ReadReq_hits::switch_cpus.data       133009                       # number of ReadReq hits
system.cpu.dcache.ReadReq_hits::total          133009                       # number of ReadReq hits
system.cpu.dcache.WriteReq_hits::switch_cpus.data        59045                       # number of WriteReq hits
system.cpu.dcache.WriteReq_hits::total          59045                       # number of WriteReq hits
system.cpu.dcache.LoadLockedReq_hits::switch_cpus.data         2228                       # number of LoadLockedReq hits
system.cpu.dcache.LoadLockedReq_hits::total         2228                       # number of LoadLockedReq hits
system.cpu.dcache.StoreCondReq_hits::switch_cpus.data         2379                       # number of StoreCondReq hits
system.cpu.dcache.StoreCondReq_hits::total         2379                       # number of StoreCondReq hits
system.cpu.dcache.demand_hits::switch_cpus.data       192054                       # number of demand (read+write) hits
system.cpu.dcache.demand_hits::total           192054                       # number of demand (read+write) hits
system.cpu.dcache.overall_hits::switch_cpus.data       192054                       # number of overall hits
system.cpu.dcache.overall_hits::total          192054                       # number of overall hits
system.cpu.dcache.ReadReq_misses::switch_cpus.data        26412                       # number of ReadReq misses
system.cpu.dcache.ReadReq_misses::total         26412                       # number of ReadReq misses
system.cpu.dcache.WriteReq_misses::switch_cpus.data        67197                       # number of WriteReq misses
system.cpu.dcache.WriteReq_misses::total        67197                       # number of WriteReq misses
system.cpu.dcache.LoadLockedReq_misses::switch_cpus.data          395                       # number of LoadLockedReq misses
system.cpu.dcache.LoadLockedReq_misses::total          395                       # number of LoadLockedReq misses
system.cpu.dcache.demand_misses::switch_cpus.data        93609                       # number of demand (read+write) misses
system.cpu.dcache.demand_misses::total          93609                       # number of demand (read+write) misses
system.cpu.dcache.overall_misses::switch_cpus.data        93609                       # number of overall misses
system.cpu.dcache.overall_misses::total         93609                       # number of overall misses
system.cpu.dcache.ReadReq_miss_latency::switch_cpus.data    672341496                       # number of ReadReq miss cycles
system.cpu.dcache.ReadReq_miss_latency::total    672341496                       # number of ReadReq miss cycles
system.cpu.dcache.WriteReq_miss_latency::switch_cpus.data   1828562816                       # number of WriteReq miss cycles
system.cpu.dcache.WriteReq_miss_latency::total   1828562816                       # number of WriteReq miss cycles
system.cpu.dcache.LoadLockedReq_miss_latency::switch_cpus.data      7047500                       # number of LoadLockedReq miss cycles
system.cpu.dcache.LoadLockedReq_miss_latency::total      7047500                       # number of LoadLockedReq miss cycles
system.cpu.dcache.demand_miss_latency::switch_cpus.data   2500904312                       # number of demand (read+write) miss cycles
system.cpu.dcache.demand_miss_latency::total   2500904312                       # number of demand (read+write) miss cycles
system.cpu.dcache.overall_miss_latency::switch_cpus.data   2500904312                       # number of overall miss cycles
system.cpu.dcache.overall_miss_latency::total   2500904312                       # number of overall miss cycles
system.cpu.dcache.ReadReq_accesses::switch_cpus.data       159421                       # number of ReadReq accesses(hits+misses)
system.cpu.dcache.ReadReq_accesses::total       159421                       # number of ReadReq accesses(hits+misses)
system.cpu.dcache.WriteReq_accesses::switch_cpus.data       126242                       # number of WriteReq accesses(hits+misses)
system.cpu.dcache.WriteReq_accesses::total       126242                       # number of WriteReq accesses(hits+misses)
system.cpu.dcache.LoadLockedReq_accesses::switch_cpus.data         2623                       # number of LoadLockedReq accesses(hits+misses)
system.cpu.dcache.LoadLockedReq_accesses::total         2623                       # number of LoadLockedReq accesses(hits+misses)
system.cpu.dcache.StoreCondReq_accesses::switch_cpus.data         2379                       # number of StoreCondReq accesses(hits+misses)
system.cpu.dcache.StoreCondReq_accesses::total         2379                       # number of StoreCondReq accesses(hits+misses)
system.cpu.dcache.demand_accesses::switch_cpus.data       285663                       # number of demand (read+write) accesses
system.cpu.dcache.demand_accesses::total       285663                       # number of demand (read+write) accesses
system.cpu.dcache.overall_accesses::switch_cpus.data       285663                       # number of overall (read+write) accesses
system.cpu.dcache.overall_accesses::total       285663                       # number of overall (read+write) accesses
system.cpu.dcache.ReadReq_miss_rate::switch_cpus.data     0.165675                       # miss rate for ReadReq accesses
system.cpu.dcache.ReadReq_miss_rate::total     0.165675                       # miss rate for ReadReq accesses
system.cpu.dcache.WriteReq_miss_rate::switch_cpus.data     0.532287                       # miss rate for WriteReq accesses
system.cpu.dcache.WriteReq_miss_rate::total     0.532287                       # miss rate for WriteReq accesses
system.cpu.dcache.LoadLockedReq_miss_rate::switch_cpus.data     0.150591                       # miss rate for LoadLockedReq accesses
system.cpu.dcache.LoadLockedReq_miss_rate::total     0.150591                       # miss rate for LoadLockedReq accesses
system.cpu.dcache.demand_miss_rate::switch_cpus.data     0.327690                       # miss rate for demand accesses
system.cpu.dcache.demand_miss_rate::total     0.327690                       # miss rate for demand accesses
system.cpu.dcache.overall_miss_rate::switch_cpus.data     0.327690                       # miss rate for overall accesses
system.cpu.dcache.overall_miss_rate::total     0.327690                       # miss rate for overall accesses
system.cpu.dcache.ReadReq_avg_miss_latency::switch_cpus.data 25455.910041                       # average ReadReq miss latency
system.cpu.dcache.ReadReq_avg_miss_latency::total 25455.910041                       # average ReadReq miss latency
system.cpu.dcache.WriteReq_avg_miss_latency::switch_cpus.data 27211.971011                       # average WriteReq miss latency
system.cpu.dcache.WriteReq_avg_miss_latency::total 27211.971011                       # average WriteReq miss latency
system.cpu.dcache.LoadLockedReq_avg_miss_latency::switch_cpus.data 17841.772152                       # average LoadLockedReq miss latency
system.cpu.dcache.LoadLockedReq_avg_miss_latency::total 17841.772152                       # average LoadLockedReq miss latency
system.cpu.dcache.demand_avg_miss_latency::switch_cpus.data 26716.494269                       # average overall miss latency
system.cpu.dcache.demand_avg_miss_latency::total 26716.494269                       # average overall miss latency
system.cpu.dcache.overall_avg_miss_latency::switch_cpus.data 26716.494269                       # average overall miss latency
system.cpu.dcache.overall_avg_miss_latency::total 26716.494269                       # average overall miss latency
system.cpu.dcache.blocked_cycles::no_mshrs        75511                       # number of cycles access was blocked
system.cpu.dcache.blocked_cycles::no_targets            8                       # number of cycles access was blocked
system.cpu.dcache.blocked::no_mshrs              4612                       # number of cycles access was blocked
system.cpu.dcache.blocked::no_targets               1                       # number of cycles access was blocked
system.cpu.dcache.avg_blocked_cycles::no_mshrs    16.372723                       # average number of cycles each access was blocked
system.cpu.dcache.avg_blocked_cycles::no_targets            8                       # average number of cycles each access was blocked
system.cpu.dcache.fast_writes                       0                       # number of fast writes performed
system.cpu.dcache.cache_copies                      0                       # number of cache copies performed
system.cpu.dcache.writebacks::writebacks        13041                       # number of writebacks
system.cpu.dcache.writebacks::total             13041                       # number of writebacks
system.cpu.dcache.ReadReq_mshr_hits::switch_cpus.data        17422                       # number of ReadReq MSHR hits
system.cpu.dcache.ReadReq_mshr_hits::total        17422                       # number of ReadReq MSHR hits
system.cpu.dcache.WriteReq_mshr_hits::switch_cpus.data        58096                       # number of WriteReq MSHR hits
system.cpu.dcache.WriteReq_mshr_hits::total        58096                       # number of WriteReq MSHR hits
system.cpu.dcache.LoadLockedReq_mshr_hits::switch_cpus.data          175                       # number of LoadLockedReq MSHR hits
system.cpu.dcache.LoadLockedReq_mshr_hits::total          175                       # number of LoadLockedReq MSHR hits
system.cpu.dcache.demand_mshr_hits::switch_cpus.data        75518                       # number of demand (read+write) MSHR hits
system.cpu.dcache.demand_mshr_hits::total        75518                       # number of demand (read+write) MSHR hits
system.cpu.dcache.overall_mshr_hits::switch_cpus.data        75518                       # number of overall MSHR hits
system.cpu.dcache.overall_mshr_hits::total        75518                       # number of overall MSHR hits
system.cpu.dcache.ReadReq_mshr_misses::switch_cpus.data         8990                       # number of ReadReq MSHR misses
system.cpu.dcache.ReadReq_mshr_misses::total         8990                       # number of ReadReq MSHR misses
system.cpu.dcache.WriteReq_mshr_misses::switch_cpus.data         9101                       # number of WriteReq MSHR misses
system.cpu.dcache.WriteReq_mshr_misses::total         9101                       # number of WriteReq MSHR misses
system.cpu.dcache.LoadLockedReq_mshr_misses::switch_cpus.data          220                       # number of LoadLockedReq MSHR misses
system.cpu.dcache.LoadLockedReq_mshr_misses::total          220                       # number of LoadLockedReq MSHR misses
system.cpu.dcache.demand_mshr_misses::switch_cpus.data        18091                       # number of demand (read+write) MSHR misses
system.cpu.dcache.demand_mshr_misses::total        18091                       # number of demand (read+write) MSHR misses
system.cpu.dcache.overall_mshr_misses::switch_cpus.data        18091                       # number of overall MSHR misses
system.cpu.dcache.overall_mshr_misses::total        18091                       # number of overall MSHR misses
system.cpu.dcache.WriteReq_mshr_uncacheable::switch_cpus.data            1                       # number of WriteReq MSHR uncacheable
system.cpu.dcache.WriteReq_mshr_uncacheable::total            1                       # number of WriteReq MSHR uncacheable
system.cpu.dcache.overall_mshr_uncacheable_misses::switch_cpus.data            1                       # number of overall MSHR uncacheable misses
system.cpu.dcache.overall_mshr_uncacheable_misses::total            1                       # number of overall MSHR uncacheable misses
system.cpu.dcache.ReadReq_mshr_miss_latency::switch_cpus.data    218396254                       # number of ReadReq MSHR miss cycles
system.cpu.dcache.ReadReq_mshr_miss_latency::total    218396254                       # number of ReadReq MSHR miss cycles
system.cpu.dcache.WriteReq_mshr_miss_latency::switch_cpus.data    252322559                       # number of WriteReq MSHR miss cycles
system.cpu.dcache.WriteReq_mshr_miss_latency::total    252322559                       # number of WriteReq MSHR miss cycles
system.cpu.dcache.LoadLockedReq_mshr_miss_latency::switch_cpus.data      4135000                       # number of LoadLockedReq MSHR miss cycles
system.cpu.dcache.LoadLockedReq_mshr_miss_latency::total      4135000                       # number of LoadLockedReq MSHR miss cycles
system.cpu.dcache.demand_mshr_miss_latency::switch_cpus.data    470718813                       # number of demand (read+write) MSHR miss cycles
system.cpu.dcache.demand_mshr_miss_latency::total    470718813                       # number of demand (read+write) MSHR miss cycles
system.cpu.dcache.overall_mshr_miss_latency::switch_cpus.data    470718813                       # number of overall MSHR miss cycles
system.cpu.dcache.overall_mshr_miss_latency::total    470718813                       # number of overall MSHR miss cycles
system.cpu.dcache.WriteReq_mshr_uncacheable_latency::switch_cpus.data       227500                       # number of WriteReq MSHR uncacheable cycles
system.cpu.dcache.WriteReq_mshr_uncacheable_latency::total       227500                       # number of WriteReq MSHR uncacheable cycles
system.cpu.dcache.overall_mshr_uncacheable_latency::switch_cpus.data       227500                       # number of overall MSHR uncacheable cycles
system.cpu.dcache.overall_mshr_uncacheable_latency::total       227500                       # number of overall MSHR uncacheable cycles
system.cpu.dcache.ReadReq_mshr_miss_rate::switch_cpus.data     0.056392                       # mshr miss rate for ReadReq accesses
system.cpu.dcache.ReadReq_mshr_miss_rate::total     0.056392                       # mshr miss rate for ReadReq accesses
system.cpu.dcache.WriteReq_mshr_miss_rate::switch_cpus.data     0.072092                       # mshr miss rate for WriteReq accesses
system.cpu.dcache.WriteReq_mshr_miss_rate::total     0.072092                       # mshr miss rate for WriteReq accesses
system.cpu.dcache.LoadLockedReq_mshr_miss_rate::switch_cpus.data     0.083873                       # mshr miss rate for LoadLockedReq accesses
system.cpu.dcache.LoadLockedReq_mshr_miss_rate::total     0.083873                       # mshr miss rate for LoadLockedReq accesses
system.cpu.dcache.demand_mshr_miss_rate::switch_cpus.data     0.063330                       # mshr miss rate for demand accesses
system.cpu.dcache.demand_mshr_miss_rate::total     0.063330                       # mshr miss rate for demand accesses
system.cpu.dcache.overall_mshr_miss_rate::switch_cpus.data     0.063330                       # mshr miss rate for overall accesses
system.cpu.dcache.overall_mshr_miss_rate::total     0.063330                       # mshr miss rate for overall accesses
system.cpu.dcache.ReadReq_avg_mshr_miss_latency::switch_cpus.data 24293.242937                       # average ReadReq mshr miss latency
system.cpu.dcache.ReadReq_avg_mshr_miss_latency::total 24293.242937                       # average ReadReq mshr miss latency
system.cpu.dcache.WriteReq_avg_mshr_miss_latency::switch_cpus.data 27724.707065                       # average WriteReq mshr miss latency
system.cpu.dcache.WriteReq_avg_mshr_miss_latency::total 27724.707065                       # average WriteReq mshr miss latency
system.cpu.dcache.LoadLockedReq_avg_mshr_miss_latency::switch_cpus.data 18795.454545                       # average LoadLockedReq mshr miss latency
system.cpu.dcache.LoadLockedReq_avg_mshr_miss_latency::total 18795.454545                       # average LoadLockedReq mshr miss latency
system.cpu.dcache.demand_avg_mshr_miss_latency::switch_cpus.data 26019.502128                       # average overall mshr miss latency
system.cpu.dcache.demand_avg_mshr_miss_latency::total 26019.502128                       # average overall mshr miss latency
system.cpu.dcache.overall_avg_mshr_miss_latency::switch_cpus.data 26019.502128                       # average overall mshr miss latency
system.cpu.dcache.overall_avg_mshr_miss_latency::total 26019.502128                       # average overall mshr miss latency
system.cpu.dcache.WriteReq_avg_mshr_uncacheable_latency::switch_cpus.data       227500                       # average WriteReq mshr uncacheable latency
system.cpu.dcache.WriteReq_avg_mshr_uncacheable_latency::total       227500                       # average WriteReq mshr uncacheable latency
system.cpu.dcache.overall_avg_mshr_uncacheable_latency::switch_cpus.data       227500                       # average overall mshr uncacheable latency
system.cpu.dcache.overall_avg_mshr_uncacheable_latency::total       227500                       # average overall mshr uncacheable latency
system.cpu.dcache.no_allocate_misses                0                       # Number of misses that were no-allocate
system.cpu.icache.tags.replacements             10378                       # number of replacements
system.cpu.icache.tags.tagsinuse           511.870852                       # Cycle average of tags in use
system.cpu.icache.tags.total_refs              363788                       # Total number of references to valid blocks.
system.cpu.icache.tags.sampled_refs             10378                       # Sample count of references to valid blocks.
system.cpu.icache.tags.avg_refs             35.053768                       # Average number of references to valid blocks.
system.cpu.icache.tags.warmup_cycle                 0                       # Cycle when the warmup percentage was hit.
system.cpu.icache.tags.occ_blocks::cpu.inst    22.846750                       # Average occupied blocks per requestor
system.cpu.icache.tags.occ_blocks::switch_cpus.inst   489.024101                       # Average occupied blocks per requestor
system.cpu.icache.tags.occ_percent::cpu.inst     0.044623                       # Average percentage of cache occupancy
system.cpu.icache.tags.occ_percent::switch_cpus.inst     0.955125                       # Average percentage of cache occupancy
system.cpu.icache.tags.occ_percent::total     0.999748                       # Average percentage of cache occupancy
system.cpu.icache.tags.occ_task_id_blocks::1024          511                       # Occupied blocks per task id
system.cpu.icache.tags.age_task_id_blocks_1024::0           67                       # Occupied blocks per task id
system.cpu.icache.tags.age_task_id_blocks_1024::1          122                       # Occupied blocks per task id
system.cpu.icache.tags.age_task_id_blocks_1024::2          322                       # Occupied blocks per task id
system.cpu.icache.tags.occ_task_id_percent::1024     0.998047                       # Percentage of cache occupancy per task id
system.cpu.icache.tags.tag_accesses            332957                       # Number of tag accesses
system.cpu.icache.tags.data_accesses           332957                       # Number of data accesses
system.cpu.icache.ReadReq_hits::switch_cpus.inst       149374                       # number of ReadReq hits
system.cpu.icache.ReadReq_hits::total          149374                       # number of ReadReq hits
system.cpu.icache.demand_hits::switch_cpus.inst       149374                       # number of demand (read+write) hits
system.cpu.icache.demand_hits::total           149374                       # number of demand (read+write) hits
system.cpu.icache.overall_hits::switch_cpus.inst       149374                       # number of overall hits
system.cpu.icache.overall_hits::total          149374                       # number of overall hits
system.cpu.icache.ReadReq_misses::switch_cpus.inst        11915                       # number of ReadReq misses
system.cpu.icache.ReadReq_misses::total         11915                       # number of ReadReq misses
system.cpu.icache.demand_misses::switch_cpus.inst        11915                       # number of demand (read+write) misses
system.cpu.icache.demand_misses::total          11915                       # number of demand (read+write) misses
system.cpu.icache.overall_misses::switch_cpus.inst        11915                       # number of overall misses
system.cpu.icache.overall_misses::total         11915                       # number of overall misses
system.cpu.icache.ReadReq_miss_latency::switch_cpus.inst    303509212                       # number of ReadReq miss cycles
system.cpu.icache.ReadReq_miss_latency::total    303509212                       # number of ReadReq miss cycles
system.cpu.icache.demand_miss_latency::switch_cpus.inst    303509212                       # number of demand (read+write) miss cycles
system.cpu.icache.demand_miss_latency::total    303509212                       # number of demand (read+write) miss cycles
system.cpu.icache.overall_miss_latency::switch_cpus.inst    303509212                       # number of overall miss cycles
system.cpu.icache.overall_miss_latency::total    303509212                       # number of overall miss cycles
system.cpu.icache.ReadReq_accesses::switch_cpus.inst       161289                       # number of ReadReq accesses(hits+misses)
system.cpu.icache.ReadReq_accesses::total       161289                       # number of ReadReq accesses(hits+misses)
system.cpu.icache.demand_accesses::switch_cpus.inst       161289                       # number of demand (read+write) accesses
system.cpu.icache.demand_accesses::total       161289                       # number of demand (read+write) accesses
system.cpu.icache.overall_accesses::switch_cpus.inst       161289                       # number of overall (read+write) accesses
system.cpu.icache.overall_accesses::total       161289                       # number of overall (read+write) accesses
system.cpu.icache.ReadReq_miss_rate::switch_cpus.inst     0.073874                       # miss rate for ReadReq accesses
system.cpu.icache.ReadReq_miss_rate::total     0.073874                       # miss rate for ReadReq accesses
system.cpu.icache.demand_miss_rate::switch_cpus.inst     0.073874                       # miss rate for demand accesses
system.cpu.icache.demand_miss_rate::total     0.073874                       # miss rate for demand accesses
system.cpu.icache.overall_miss_rate::switch_cpus.inst     0.073874                       # miss rate for overall accesses
system.cpu.icache.overall_miss_rate::total     0.073874                       # miss rate for overall accesses
system.cpu.icache.ReadReq_avg_miss_latency::switch_cpus.inst 25472.867142                       # average ReadReq miss latency
system.cpu.icache.ReadReq_avg_miss_latency::total 25472.867142                       # average ReadReq miss latency
system.cpu.icache.demand_avg_miss_latency::switch_cpus.inst 25472.867142                       # average overall miss latency
system.cpu.icache.demand_avg_miss_latency::total 25472.867142                       # average overall miss latency
system.cpu.icache.overall_avg_miss_latency::switch_cpus.inst 25472.867142                       # average overall miss latency
system.cpu.icache.overall_avg_miss_latency::total 25472.867142                       # average overall miss latency
system.cpu.icache.blocked_cycles::no_mshrs         1844                       # number of cycles access was blocked
system.cpu.icache.blocked_cycles::no_targets            0                       # number of cycles access was blocked
system.cpu.icache.blocked::no_mshrs                73                       # number of cycles access was blocked
system.cpu.icache.blocked::no_targets               0                       # number of cycles access was blocked
system.cpu.icache.avg_blocked_cycles::no_mshrs    25.260274                       # average number of cycles each access was blocked
system.cpu.icache.avg_blocked_cycles::no_targets          nan                       # average number of cycles each access was blocked
system.cpu.icache.fast_writes                       0                       # number of fast writes performed
system.cpu.icache.cache_copies                      0                       # number of cache copies performed
system.cpu.icache.ReadReq_mshr_hits::switch_cpus.inst         1536                       # number of ReadReq MSHR hits
system.cpu.icache.ReadReq_mshr_hits::total         1536                       # number of ReadReq MSHR hits
system.cpu.icache.demand_mshr_hits::switch_cpus.inst         1536                       # number of demand (read+write) MSHR hits
system.cpu.icache.demand_mshr_hits::total         1536                       # number of demand (read+write) MSHR hits
system.cpu.icache.overall_mshr_hits::switch_cpus.inst         1536                       # number of overall MSHR hits
system.cpu.icache.overall_mshr_hits::total         1536                       # number of overall MSHR hits
system.cpu.icache.ReadReq_mshr_misses::switch_cpus.inst        10379                       # number of ReadReq MSHR misses
system.cpu.icache.ReadReq_mshr_misses::total        10379                       # number of ReadReq MSHR misses
system.cpu.icache.demand_mshr_misses::switch_cpus.inst        10379                       # number of demand (read+write) MSHR misses
system.cpu.icache.demand_mshr_misses::total        10379                       # number of demand (read+write) MSHR misses
system.cpu.icache.overall_mshr_misses::switch_cpus.inst        10379                       # number of overall MSHR misses
system.cpu.icache.overall_mshr_misses::total        10379                       # number of overall MSHR misses
system.cpu.icache.ReadReq_mshr_miss_latency::switch_cpus.inst    243114770                       # number of ReadReq MSHR miss cycles
system.cpu.icache.ReadReq_mshr_miss_latency::total    243114770                       # number of ReadReq MSHR miss cycles
system.cpu.icache.demand_mshr_miss_latency::switch_cpus.inst    243114770                       # number of demand (read+write) MSHR miss cycles
system.cpu.icache.demand_mshr_miss_latency::total    243114770                       # number of demand (read+write) MSHR miss cycles
system.cpu.icache.overall_mshr_miss_latency::switch_cpus.inst    243114770                       # number of overall MSHR miss cycles
system.cpu.icache.overall_mshr_miss_latency::total    243114770                       # number of overall MSHR miss cycles
system.cpu.icache.ReadReq_mshr_miss_rate::switch_cpus.inst     0.064350                       # mshr miss rate for ReadReq accesses
system.cpu.icache.ReadReq_mshr_miss_rate::total     0.064350                       # mshr miss rate for ReadReq accesses
system.cpu.icache.demand_mshr_miss_rate::switch_cpus.inst     0.064350                       # mshr miss rate for demand accesses
system.cpu.icache.demand_mshr_miss_rate::total     0.064350                       # mshr miss rate for demand accesses
system.cpu.icache.overall_mshr_miss_rate::switch_cpus.inst     0.064350                       # mshr miss rate for overall accesses
system.cpu.icache.overall_mshr_miss_rate::total     0.064350                       # mshr miss rate for overall accesses
system.cpu.icache.ReadReq_avg_mshr_miss_latency::switch_cpus.inst 23423.718085                       # average ReadReq mshr miss latency
system.cpu.icache.ReadReq_avg_mshr_miss_latency::total 23423.718085                       # average ReadReq mshr miss latency
system.cpu.icache.demand_avg_mshr_miss_latency::switch_cpus.inst 23423.718085                       # average overall mshr miss latency
system.cpu.icache.demand_avg_mshr_miss_latency::total 23423.718085                       # average overall mshr miss latency
system.cpu.icache.overall_avg_mshr_miss_latency::switch_cpus.inst 23423.718085                       # average overall mshr miss latency
[...]
system.switch_cpus.iew.wb_penalized_rate            0                       # fraction of instructions written-back that wrote to 'other' IQ
system.switch_cpus.commit.commitSquashedInsts      8000500                       # The number of squashed insts skipped by commit
system.switch_cpus.commit.commitNonSpecStalls       940933                       # The number of times commit has been forced to stall to communicate backwards
system.switch_cpus.commit.branchMispredicts       378223                       # The number of times a branch was mispredicted
system.switch_cpus.commit.committed_per_cycle::samples     72003384                       # Number of insts commited each cycle
system.switch_cpus.commit.committed_per_cycle::mean     0.786652                       # Number of insts commited each cycle
system.switch_cpus.commit.committed_per_cycle::stdev     1.948799                       # Number of insts commited each cycle
system.switch_cpus.commit.committed_per_cycle::underflows            0      0.00%      0.00% # Number of insts commited each cycle
system.switch_cpus.commit.committed_per_cycle::0     55089544     76.51%     76.51% # Number of insts commited each cycle
system.switch_cpus.commit.committed_per_cycle::1      7037327      9.77%     86.28% # Number of insts commited each cycle
system.switch_cpus.commit.committed_per_cycle::2      2406993      3.34%     89.63% # Number of insts commited each cycle
system.switch_cpus.commit.committed_per_cycle::3      1524521      2.12%     91.74% # Number of insts commited each cycle
system.switch_cpus.commit.committed_per_cycle::4      1093901      1.52%     93.26% # Number of insts commited each cycle
system.switch_cpus.commit.committed_per_cycle::5       545722      0.76%     94.02% # Number of insts commited each cycle
system.switch_cpus.commit.committed_per_cycle::6       447552      0.62%     94.64% # Number of insts commited each cycle
system.switch_cpus.commit.committed_per_cycle::7       435414      0.60%     95.25% # Number of insts commited each cycle
system.switch_cpus.commit.committed_per_cycle::8      3422410      4.75%    100.00% # Number of insts commited each cycle
system.switch_cpus.commit.committed_per_cycle::overflows            0      0.00%    100.00% # Number of insts commited each cycle
system.switch_cpus.commit.committed_per_cycle::min_value            0                       # Number of insts commited each cycle
system.switch_cpus.commit.committed_per_cycle::max_value            8                       # Number of insts commited each cycle
system.switch_cpus.commit.committed_per_cycle::total     72003384                       # Number of insts commited each cycle
system.switch_cpus.commit.committedInsts     56641580                       # Number of instructions committed
system.switch_cpus.commit.committedOps       56641580                       # Number of ops (including micro ops) committed
system.switch_cpus.commit.swp_count                 0                       # Number of s/w prefetches committed
system.switch_cpus.commit.refs               17863684                       # Number of memory references committed
system.switch_cpus.commit.loads              10601154                       # Number of loads committed
system.switch_cpus.commit.membars              527528                       # Number of memory barriers committed
system.switch_cpus.commit.branches            8047760                       # Number of branches committed
system.switch_cpus.commit.fp_insts              96295                       # Number of committed floating point instructions.
system.switch_cpus.commit.int_insts          54871783                       # Number of committed integer instructions.
system.switch_cpus.commit.function_calls       924022                       # Number of function calls committed.
system.switch_cpus.commit.op_class_0::No_OpClass       641295      1.13%      1.13% # Class of committed instruction
system.switch_cpus.commit.op_class_0::IntAlu     36815860     65.00%     66.13% # Class of committed instruction
system.switch_cpus.commit.op_class_0::IntMult        61142      0.11%     66.24% # Class of committed instruction
system.switch_cpus.commit.op_class_0::IntDiv            0      0.00%     66.24% # Class of committed instruction
system.switch_cpus.commit.op_class_0::FloatAdd        33411      0.06%     66.30% # Class of committed instruction
system.switch_cpus.commit.op_class_0::FloatCmp            1      0.00%     66.30% # Class of committed instruction
system.switch_cpus.commit.op_class_0::FloatCvt        17780      0.03%     66.33% # Class of committed instruction
system.switch_cpus.commit.op_class_0::FloatMult            1      0.00%     66.33% # Class of committed instruction
system.switch_cpus.commit.op_class_0::FloatDiv         6171      0.01%     66.34% # Class of committed instruction
system.switch_cpus.commit.op_class_0::FloatSqrt            0      0.00%     66.34% # Class of committed instruction
system.switch_cpus.commit.op_class_0::SimdAdd            0      0.00%     66.34% # Class of committed instruction
system.switch_cpus.commit.op_class_0::SimdAddAcc            0      0.00%     66.34% # Class of committed instruction
system.switch_cpus.commit.op_class_0::SimdAlu            0      0.00%     66.34% # Class of committed instruction
system.switch_cpus.commit.op_class_0::SimdCmp            0      0.00%     66.34% # Class of committed instruction
system.switch_cpus.commit.op_class_0::SimdCvt            0      0.00%     66.34% # Class of committed instruction
system.switch_cpus.commit.op_class_0::SimdMisc            0      0.00%     66.34% # Class of committed instruction
system.switch_cpus.commit.op_class_0::SimdMult            0      0.00%     66.34% # Class of committed instruction
system.switch_cpus.commit.op_class_0::SimdMultAcc            0      0.00%     66.34% # Class of committed instruction
system.switch_cpus.commit.op_class_0::SimdShift            0      0.00%     66.34% # Class of committed instruction
system.switch_cpus.commit.op_class_0::SimdShiftAcc            0      0.00%     66.34% # Class of committed instruction
system.switch_cpus.commit.op_class_0::SimdSqrt            0      0.00%     66.34% # Class of committed instruction
system.switch_cpus.commit.op_class_0::SimdFloatAdd            0      0.00%     66.34% # Class of committed instruction
system.switch_cpus.commit.op_class_0::SimdFloatAlu            0      0.00%     66.34% # Class of committed instruction
system.switch_cpus.commit.op_class_0::SimdFloatCmp            0      0.00%     66.34% # Class of committed instruction
system.switch_cpus.commit.op_class_0::SimdFloatCvt            0      0.00%     66.34% # Class of committed instruction
system.switch_cpus.commit.op_class_0::SimdFloatDiv            0      0.00%     66.34% # Class of committed instruction
system.switch_cpus.commit.op_class_0::SimdFloatMisc            0      0.00%     66.34% # Class of committed instruction
system.switch_cpus.commit.op_class_0::SimdFloatMult            0      0.00%     66.34% # Class of committed instruction
system.switch_cpus.commit.op_class_0::SimdFloatMultAcc            0      0.00%     66.34% # Class of committed instruction
system.switch_cpus.commit.op_class_0::SimdFloatSqrt            0      0.00%     66.34% # Class of committed instruction
system.switch_cpus.commit.op_class_0::MemRead     11128682     19.65%     85.99% # Class of committed instruction
system.switch_cpus.commit.op_class_0::MemWrite      7271342     12.84%     98.82% # Class of committed instruction
system.switch_cpus.commit.op_class_0::IprAccess       665895      1.18%    100.00% # Class of committed instruction
system.switch_cpus.commit.op_class_0::InstPrefetch            0      0.00%    100.00% # Class of committed instruction
system.switch_cpus.commit.op_class_0::total     56641580                       # Class of committed instruction
system.switch_cpus.commit.bw_lim_events       3422410                       # number cycles where commit BW limit reached
system.switch_cpus.rob.rob_reads            132908440                       # The number of ROB reads
system.switch_cpus.rob.rob_writes           130610425                       # The number of ROB writes
system.switch_cpus.timesIdled                  442484                       # Number of times that the entire CPU went into an idle state and unscheduled itself
system.switch_cpus.idleCycles                 3183320                       # Total number of cycles that the CPU has spent unscheduled due to idling
system.switch_cpus.quiesceCycles               296687                       # Total number of cycles that CPU has spent quiesced or waiting for an interrupt
system.switch_cpus.committedInsts            56012629                       # Number of Instructions Simulated
system.switch_cpus.committedOps              56012629                       # Number of Ops (including micro ops) Simulated
system.switch_cpus.cpi                       1.365701                       # CPI: Cycles Per Instruction
system.switch_cpus.cpi_total                 1.365701                       # CPI: Total CPI of All Threads
system.switch_cpus.ipc                       0.732225                       # IPC: Instructions Per Cycle
system.switch_cpus.ipc_total                 0.732225                       # IPC: Total IPC of All Threads
system.switch_cpus.int_regfile_reads         80642946                       # number of integer regfile reads
system.switch_cpus.int_regfile_writes        44037545                       # number of integer regfile writes
system.switch_cpus.fp_regfile_reads             62623                       # number of floating regfile reads
system.switch_cpus.fp_regfile_writes            62318                       # number of floating regfile writes
system.switch_cpus.misc_regfile_reads         1295736                       # number of misc regfile reads
system.switch_cpus.misc_regfile_writes         940689                       # number of misc regfile writes
system.tol2bus.trans_dist::ReadReq            1408029                       # Transaction distribution
system.tol2bus.trans_dist::ReadResp           1407998                       # Transaction distribution
system.tol2bus.trans_dist::WriteReq               277                       # Transaction distribution
system.tol2bus.trans_dist::WriteResp              277                       # Transaction distribution
system.tol2bus.trans_dist::Writeback           320304                       # Transaction distribution
system.tol2bus.trans_dist::WriteInvalidateReq         1923                       # Transaction distribution
system.tol2bus.trans_dist::UpgradeReq              59                       # Transaction distribution
system.tol2bus.trans_dist::SCUpgradeReq            34                       # Transaction distribution
system.tol2bus.trans_dist::UpgradeResp             93                       # Transaction distribution
system.tol2bus.trans_dist::ReadExReq           199382                       # Transaction distribution
system.tol2bus.trans_dist::ReadExResp          199382                       # Transaction distribution
system.tol2bus.trans_dist::BadAddressError           31                       # Transaction distribution
system.tol2bus.pkt_count_system.cpu.icache.mem_side::system.l2.cpu_side      1927902                       # Packet count per connected master and slave (bytes)
system.tol2bus.pkt_count_system.cpu.dcache.mem_side::system.l2.cpu_side      1607862                       # Packet count per connected master and slave (bytes)
system.tol2bus.pkt_count::total               3535764                       # Packet count per connected master and slave (bytes)
system.tol2bus.pkt_size_system.cpu.icache.mem_side::system.l2.cpu_side     61689856                       # Cumulative packet size per connected master and slave (bytes)
system.tol2bus.pkt_size_system.cpu.dcache.mem_side::system.l2.cpu_side     61653770                       # Cumulative packet size per connected master and slave (bytes)
system.tol2bus.pkt_size::total              123343626                       # Cumulative packet size per connected master and slave (bytes)
system.tol2bus.snoops                            2031                       # Total snoops (count)
system.tol2bus.snoop_fanout::samples          1930008                       # Request fanout histogram
system.tol2bus.snoop_fanout::mean            1.001000                       # Request fanout histogram
system.tol2bus.snoop_fanout::stdev           0.031607                       # Request fanout histogram
system.tol2bus.snoop_fanout::underflows             0      0.00%      0.00% # Request fanout histogram
system.tol2bus.snoop_fanout::0                      0      0.00%      0.00% # Request fanout histogram
system.tol2bus.snoop_fanout::1                1928078     99.90%     99.90% # Request fanout histogram
system.tol2bus.snoop_fanout::2                   1930      0.10%    100.00% # Request fanout histogram
system.tol2bus.snoop_fanout::overflows              0      0.00%    100.00% # Request fanout histogram
system.tol2bus.snoop_fanout::min_value              1                       # Request fanout histogram
system.tol2bus.snoop_fanout::max_value              2                       # Request fanout histogram
system.tol2bus.snoop_fanout::total            1930008                       # Request fanout histogram
system.tol2bus.reqLayer0.occupancy         1284481500                       # Layer occupancy (ticks)
system.tol2bus.reqLayer0.utilization              3.3                       # Layer utilization (%)
system.tol2bus.snoopLayer0.occupancy             9000                       # Layer occupancy (ticks)
system.tol2bus.snoopLayer0.utilization            0.0                       # Layer utilization (%)
system.tol2bus.respLayer0.occupancy        1448830121                       # Layer occupancy (ticks)
system.tol2bus.respLayer0.utilization             3.8                       # Layer utilization (%)
system.tol2bus.respLayer1.occupancy        1022935545                       # Layer occupancy (ticks)
system.tol2bus.respLayer1.utilization             2.7                       # Layer utilization (%)
system.tsunami.ethernet.descDMAReads                0                       # Number of descriptors the device read w/ DMA
system.tsunami.ethernet.descDMAWrites               0                       # Number of descriptors the device wrote w/ DMA
system.tsunami.ethernet.descDmaReadBytes            0                       # number of descriptor bytes read w/ DMA
system.tsunami.ethernet.descDmaWriteBytes            0                       # number of descriptor bytes write w/ DMA
system.tsunami.ethernet.postedSwi                   0                       # number of software interrupts posted to CPU
system.tsunami.ethernet.coalescedSwi              nan                       # average number of Swi's coalesced into each post
system.tsunami.ethernet.totalSwi                    0                       # total number of Swi written to ISR
system.tsunami.ethernet.postedRxIdle                0                       # number of rxIdle interrupts posted to CPU
system.tsunami.ethernet.coalescedRxIdle           nan                       # average number of RxIdle's coalesced into each post
system.tsunami.ethernet.totalRxIdle                 0                       # total number of RxIdle written to ISR
system.tsunami.ethernet.postedRxOk                  0                       # number of RxOk interrupts posted to CPU
system.tsunami.ethernet.coalescedRxOk             nan                       # average number of RxOk's coalesced into each post
system.tsunami.ethernet.totalRxOk                   0                       # total number of RxOk written to ISR
system.tsunami.ethernet.postedRxDesc                0                       # number of RxDesc interrupts posted to CPU
system.tsunami.ethernet.coalescedRxDesc           nan                       # average number of RxDesc's coalesced into each post
system.tsunami.ethernet.totalRxDesc                 0                       # total number of RxDesc written to ISR
system.tsunami.ethernet.postedTxOk                  0                       # number of TxOk interrupts posted to CPU
system.tsunami.ethernet.coalescedTxOk             nan                       # average number of TxOk's coalesced into each post
system.tsunami.ethernet.totalTxOk                   0                       # total number of TxOk written to ISR
system.tsunami.ethernet.postedTxIdle                0                       # number of TxIdle interrupts posted to CPU
system.tsunami.ethernet.coalescedTxIdle           nan                       # average number of TxIdle's coalesced into each post
system.tsunami.ethernet.totalTxIdle                 0                       # total number of TxIdle written to ISR
system.tsunami.ethernet.postedTxDesc                0                       # number of TxDesc interrupts posted to CPU
system.tsunami.ethernet.coalescedTxDesc           nan                       # average number of TxDesc's coalesced into each post
system.tsunami.ethernet.totalTxDesc                 0                       # total number of TxDesc written to ISR
system.tsunami.ethernet.postedRxOrn                 0                       # number of RxOrn posted to CPU
system.tsunami.ethernet.coalescedRxOrn            nan                       # average number of RxOrn's coalesced into each post
system.tsunami.ethernet.totalRxOrn                  0                       # total number of RxOrn written to ISR
system.tsunami.ethernet.coalescedTotal            nan                       # average number of interrupts coalesced into each post
system.tsunami.ethernet.postedInterrupts            0                       # number of posts to CPU
system.tsunami.ethernet.droppedPackets              0                       # number of packets dropped
system.switch_cpus.kern.inst.arm                    0                       # number of arm instructions executed
system.switch_cpus.kern.inst.quiesce                0                       # number of quiesce instructions executed
system.switch_cpus.kern.inst.hwrei                  0                       # number of hwrei instructions executed
system.switch_cpus.kern.mode_switch::kernel            0                       # number of protection mode switches
system.switch_cpus.kern.mode_switch::user            0                       # number of protection mode switches
system.switch_cpus.kern.mode_switch::idle            0                       # number of protection mode switches
system.switch_cpus.kern.mode_good::kernel            0                      
system.switch_cpus.kern.mode_good::user             0                      
system.switch_cpus.kern.mode_good::idle             0                      
system.switch_cpus.kern.mode_switch_good::kernel          nan                       # fraction of useful protection mode switches
system.switch_cpus.kern.mode_switch_good::user          nan                       # fraction of useful protection mode switches
system.switch_cpus.kern.mode_switch_good::idle          nan                       # fraction of useful protection mode switches
system.switch_cpus.kern.mode_switch_good::total          nan                       # fraction of useful protection mode switches
system.switch_cpus.kern.mode_ticks::kernel            0                       # number of ticks spent at the given mode
system.switch_cpus.kern.mode_ticks::user            0                       # number of ticks spent at the given mode
system.switch_cpus.kern.mode_ticks::idle            0                       # number of ticks spent at the given mode
system.switch_cpus.kern.swap_context                0                       # number of times the context was actually changed

---------- End Simulation Statistics   ----------
