
---------- Begin Simulation Statistics ----------
sim_seconds                                  0.000742                       # Number of seconds simulated
sim_ticks                                   742266000                       # Number of ticks simulated
final_tick                               2261993170000                       # Number of ticks from beginning of simulation (restored from checkpoints and never reset)
sim_freq                                 1000000000000                       # Frequency of simulated ticks
host_inst_rate                               39468809                       # Simulator instruction rate (inst/s)
host_op_rate                                 39468714                       # Simulator op (including micro ops) rate (op/s)
host_tick_rate                              248528213                       # Simulator tick rate (ticks/s)
host_mem_usage                                 756592                       # Number of bytes of host memory used
host_seconds                                     2.99                       # Real time elapsed on the host
sim_insts                                   117878863                       # Number of instructions simulated
sim_ops                                     117878863                       # Number of ops (including micro ops) simulated
system.voltage_domain.voltage                       1                       # Voltage in Volts
system.clk_domain.clock                          1000                       # Clock period in ticks
system.mem_ctrls.bytes_read::switch_cpus0.inst        72896                       # Number of bytes read from this memory
system.mem_ctrls.bytes_read::switch_cpus0.data        61824                       # Number of bytes read from this memory
system.mem_ctrls.bytes_read::switch_cpus1.inst        15488                       # Number of bytes read from this memory
system.mem_ctrls.bytes_read::switch_cpus1.data        49664                       # Number of bytes read from this memory
system.mem_ctrls.bytes_read::switch_cpus2.inst         1472                       # Number of bytes read from this memory
system.mem_ctrls.bytes_read::switch_cpus2.data         1280                       # Number of bytes read from this memory
system.mem_ctrls.bytes_read::switch_cpus3.inst        54528                       # Number of bytes read from this memory
system.mem_ctrls.bytes_read::switch_cpus3.data       450752                       # Number of bytes read from this memory
system.mem_ctrls.bytes_read::total             707904                       # Number of bytes read from this memory
system.mem_ctrls.bytes_inst_read::switch_cpus0.inst        72896                       # Number of instructions bytes read from this memory
system.mem_ctrls.bytes_inst_read::switch_cpus1.inst        15488                       # Number of instructions bytes read from this memory
system.mem_ctrls.bytes_inst_read::switch_cpus2.inst         1472                       # Number of instructions bytes read from this memory
system.mem_ctrls.bytes_inst_read::switch_cpus3.inst        54528                       # Number of instructions bytes read from this memory
system.mem_ctrls.bytes_inst_read::total        144384                       # Number of instructions bytes read from this memory
system.mem_ctrls.bytes_written::writebacks       407872                       # Number of bytes written to this memory
system.mem_ctrls.bytes_written::total          407872                       # Number of bytes written to this memory
system.mem_ctrls.num_reads::switch_cpus0.inst         1139                       # Number of read requests responded to by this memory
system.mem_ctrls.num_reads::switch_cpus0.data          966                       # Number of read requests responded to by this memory
system.mem_ctrls.num_reads::switch_cpus1.inst          242                       # Number of read requests responded to by this memory
system.mem_ctrls.num_reads::switch_cpus1.data          776                       # Number of read requests responded to by this memory
system.mem_ctrls.num_reads::switch_cpus2.inst           23                       # Number of read requests responded to by this memory
system.mem_ctrls.num_reads::switch_cpus2.data           20                       # Number of read requests responded to by this memory
system.mem_ctrls.num_reads::switch_cpus3.inst          852                       # Number of read requests responded to by this memory
system.mem_ctrls.num_reads::switch_cpus3.data         7043                       # Number of read requests responded to by this memory
system.mem_ctrls.num_reads::total               11061                       # Number of read requests responded to by this memory
system.mem_ctrls.num_writes::writebacks          6373                       # Number of write requests responded to by this memory
system.mem_ctrls.num_writes::total               6373                       # Number of write requests responded to by this memory
system.mem_ctrls.bw_read::switch_cpus0.inst     98207381                       # Total read bandwidth from this memory (bytes/s)
system.mem_ctrls.bw_read::switch_cpus0.data     83290896                       # Total read bandwidth from this memory (bytes/s)
system.mem_ctrls.bw_read::switch_cpus1.inst     20865835                       # Total read bandwidth from this memory (bytes/s)
system.mem_ctrls.bw_read::switch_cpus1.data     66908628                       # Total read bandwidth from this memory (bytes/s)
system.mem_ctrls.bw_read::switch_cpus2.inst      1983117                       # Total read bandwidth from this memory (bytes/s)
system.mem_ctrls.bw_read::switch_cpus2.data      1724449                       # Total read bandwidth from this memory (bytes/s)
system.mem_ctrls.bw_read::switch_cpus3.inst     73461535                       # Total read bandwidth from this memory (bytes/s)
system.mem_ctrls.bw_read::switch_cpus3.data    607264781                       # Total read bandwidth from this memory (bytes/s)
system.mem_ctrls.bw_read::total             953706623                       # Total read bandwidth from this memory (bytes/s)
system.mem_ctrls.bw_inst_read::switch_cpus0.inst     98207381                       # Instruction read bandwidth from this memory (bytes/s)
system.mem_ctrls.bw_inst_read::switch_cpus1.inst     20865835                       # Instruction read bandwidth from this memory (bytes/s)
system.mem_ctrls.bw_inst_read::switch_cpus2.inst      1983117                       # Instruction read bandwidth from this memory (bytes/s)
system.mem_ctrls.bw_inst_read::switch_cpus3.inst     73461535                       # Instruction read bandwidth from this memory (bytes/s)
system.mem_ctrls.bw_inst_read::total        194517868                       # Instruction read bandwidth from this memory (bytes/s)
system.mem_ctrls.bw_write::writebacks       549495733                       # Write bandwidth from this memory (bytes/s)
system.mem_ctrls.bw_write::total            549495733                       # Write bandwidth from this memory (bytes/s)
system.mem_ctrls.bw_total::writebacks       549495733                       # Total bandwidth to/from this memory (bytes/s)
system.mem_ctrls.bw_total::switch_cpus0.inst     98207381                       # Total bandwidth to/from this memory (bytes/s)
system.mem_ctrls.bw_total::switch_cpus0.data     83290896                       # Total bandwidth to/from this memory (bytes/s)
system.mem_ctrls.bw_total::switch_cpus1.inst     20865835                       # Total bandwidth to/from this memory (bytes/s)
system.mem_ctrls.bw_total::switch_cpus1.data     66908628                       # Total bandwidth to/from this memory (bytes/s)
system.mem_ctrls.bw_total::switch_cpus2.inst      1983117                       # Total bandwidth to/from this memory (bytes/s)
system.mem_ctrls.bw_total::switch_cpus2.data      1724449                       # Total bandwidth to/from this memory (bytes/s)
system.mem_ctrls.bw_total::switch_cpus3.inst     73461535                       # Total bandwidth to/from this memory (bytes/s)
system.mem_ctrls.bw_total::switch_cpus3.data    607264781                       # Total bandwidth to/from this memory (bytes/s)
system.mem_ctrls.bw_total::total           1503202356                       # Total bandwidth to/from this memory (bytes/s)
system.mem_ctrls.readReqs                       11061                       # Number of read requests accepted
system.mem_ctrls.writeReqs                       6373                       # Number of write requests accepted
system.mem_ctrls.readBursts                     11061                       # Number of DRAM read bursts, including those serviced by the write queue
system.mem_ctrls.writeBursts                     6373                       # Number of DRAM write bursts, including those merged in the write queue
system.mem_ctrls.bytesReadDRAM                 707136                       # Total number of bytes read from DRAM
system.mem_ctrls.bytesReadWrQ                     768                       # Total number of bytes read from write queue
system.mem_ctrls.bytesWritten                  405824                       # Total number of bytes written to DRAM
system.mem_ctrls.bytesReadSys                  707904                       # Total read bytes from the system interface side
system.mem_ctrls.bytesWrittenSys               407872                       # Total written bytes from the system interface side
system.mem_ctrls.servicedByWrQ                     12                       # Number of DRAM read bursts serviced by the write queue
system.mem_ctrls.mergedWrBursts                     0                       # Number of DRAM write bursts merged with an existing one
system.mem_ctrls.neitherReadNorWriteReqs           80                       # Number of requests that are neither read nor write
system.mem_ctrls.perBankRdBursts::0               485                       # Per bank write bursts
system.mem_ctrls.perBankRdBursts::1               779                       # Per bank write bursts
system.mem_ctrls.perBankRdBursts::2               496                       # Per bank write bursts
system.mem_ctrls.perBankRdBursts::3               396                       # Per bank write bursts
system.mem_ctrls.perBankRdBursts::4               393                       # Per bank write bursts
system.mem_ctrls.perBankRdBursts::5               817                       # Per bank write bursts
system.mem_ctrls.perBankRdBursts::6               735                       # Per bank write bursts
system.mem_ctrls.perBankRdBursts::7               743                       # Per bank write bursts
system.mem_ctrls.perBankRdBursts::8               493                       # Per bank write bursts
system.mem_ctrls.perBankRdBursts::9              1109                       # Per bank write bursts
system.mem_ctrls.perBankRdBursts::10              377                       # Per bank write bursts
system.mem_ctrls.perBankRdBursts::11              723                       # Per bank write bursts
system.mem_ctrls.perBankRdBursts::12              938                       # Per bank write bursts
system.mem_ctrls.perBankRdBursts::13              875                       # Per bank write bursts
system.mem_ctrls.perBankRdBursts::14              946                       # Per bank write bursts
system.mem_ctrls.perBankRdBursts::15              744                       # Per bank write bursts
system.mem_ctrls.perBankWrBursts::0               332                       # Per bank write bursts
system.mem_ctrls.perBankWrBursts::1               529                       # Per bank write bursts
system.mem_ctrls.perBankWrBursts::2                35                       # Per bank write bursts
system.mem_ctrls.perBankWrBursts::3               469                       # Per bank write bursts
system.mem_ctrls.perBankWrBursts::4               295                       # Per bank write bursts
system.mem_ctrls.perBankWrBursts::5               406                       # Per bank write bursts
system.mem_ctrls.perBankWrBursts::6               493                       # Per bank write bursts
system.mem_ctrls.perBankWrBursts::7               648                       # Per bank write bursts
system.mem_ctrls.perBankWrBursts::8               249                       # Per bank write bursts
system.mem_ctrls.perBankWrBursts::9               460                       # Per bank write bursts
system.mem_ctrls.perBankWrBursts::10              404                       # Per bank write bursts
system.mem_ctrls.perBankWrBursts::11              208                       # Per bank write bursts
system.mem_ctrls.perBankWrBursts::12              408                       # Per bank write bursts
system.mem_ctrls.perBankWrBursts::13              500                       # Per bank write bursts
system.mem_ctrls.perBankWrBursts::14              565                       # Per bank write bursts
system.mem_ctrls.perBankWrBursts::15              340                       # Per bank write bursts
system.mem_ctrls.numRdRetry                         0                       # Number of times read queue was full causing retry
system.mem_ctrls.numWrRetry                         0                       # Number of times write queue was full causing retry
system.mem_ctrls.totGap                     739741500                       # Total gap between requests
system.mem_ctrls.readPktSize::0                     0                       # Read request sizes (log2)
system.mem_ctrls.readPktSize::1                     0                       # Read request sizes (log2)
system.mem_ctrls.readPktSize::2                     0                       # Read request sizes (log2)
system.mem_ctrls.readPktSize::3                     0                       # Read request sizes (log2)
system.mem_ctrls.readPktSize::4                     0                       # Read request sizes (log2)
system.mem_ctrls.readPktSize::5                     0                       # Read request sizes (log2)
system.mem_ctrls.readPktSize::6                 11061                       # Read request sizes (log2)
system.mem_ctrls.writePktSize::0                    0                       # Write request sizes (log2)
system.mem_ctrls.writePktSize::1                    0                       # Write request sizes (log2)
system.mem_ctrls.writePktSize::2                    0                       # Write request sizes (log2)
system.mem_ctrls.writePktSize::3                    0                       # Write request sizes (log2)
system.mem_ctrls.writePktSize::4                    0                       # Write request sizes (log2)
system.mem_ctrls.writePktSize::5                    0                       # Write request sizes (log2)
system.mem_ctrls.writePktSize::6                 6373                       # Write request sizes (log2)
system.mem_ctrls.rdQLenPdf::0                    5006                       # What read queue length does an incoming req see
system.mem_ctrls.rdQLenPdf::1                    2881                       # What read queue length does an incoming req see
system.mem_ctrls.rdQLenPdf::2                    1811                       # What read queue length does an incoming req see
system.mem_ctrls.rdQLenPdf::3                    1320                       # What read queue length does an incoming req see
system.mem_ctrls.rdQLenPdf::4                      15                       # What read queue length does an incoming req see
system.mem_ctrls.rdQLenPdf::5                       8                       # What read queue length does an incoming req see
system.mem_ctrls.rdQLenPdf::6                       4                       # What read queue length does an incoming req see
system.mem_ctrls.rdQLenPdf::7                       2                       # What read queue length does an incoming req see
system.mem_ctrls.rdQLenPdf::8                       2                       # What read queue length does an incoming req see
system.mem_ctrls.rdQLenPdf::9                       0                       # What read queue length does an incoming req see
system.mem_ctrls.rdQLenPdf::10                      0                       # What read queue length does an incoming req see
system.mem_ctrls.rdQLenPdf::11                      0                       # What read queue length does an incoming req see
system.mem_ctrls.rdQLenPdf::12                      0                       # What read queue length does an incoming req see
system.mem_ctrls.rdQLenPdf::13                      0                       # What read queue length does an incoming req see
system.mem_ctrls.rdQLenPdf::14                      0                       # What read queue length does an incoming req see
system.mem_ctrls.rdQLenPdf::15                      0                       # What read queue length does an incoming req see
system.mem_ctrls.rdQLenPdf::16                      0                       # What read queue length does an incoming req see
system.mem_ctrls.rdQLenPdf::17                      0                       # What read queue length does an incoming req see
system.mem_ctrls.rdQLenPdf::18                      0                       # What read queue length does an incoming req see
system.mem_ctrls.rdQLenPdf::19                      0                       # What read queue length does an incoming req see
system.mem_ctrls.rdQLenPdf::20                      0                       # What read queue length does an incoming req see
system.mem_ctrls.rdQLenPdf::21                      0                       # What read queue length does an incoming req see
system.mem_ctrls.rdQLenPdf::22                      0                       # What read queue length does an incoming req see
system.mem_ctrls.rdQLenPdf::23                      0                       # What read queue length does an incoming req see
system.mem_ctrls.rdQLenPdf::24                      0                       # What read queue length does an incoming req see
system.mem_ctrls.rdQLenPdf::25                      0                       # What read queue length does an incoming req see
system.mem_ctrls.rdQLenPdf::26                      0                       # What read queue length does an incoming req see
system.mem_ctrls.rdQLenPdf::27                      0                       # What read queue length does an incoming req see
system.mem_ctrls.rdQLenPdf::28                      0                       # What read queue length does an incoming req see
system.mem_ctrls.rdQLenPdf::29                      0                       # What read queue length does an incoming req see
system.mem_ctrls.rdQLenPdf::30                      0                       # What read queue length does an incoming req see
system.mem_ctrls.rdQLenPdf::31                      0                       # What read queue length does an incoming req see
system.mem_ctrls.wrQLenPdf::0                       1                       # What write queue length does an incoming req see
system.mem_ctrls.wrQLenPdf::1                       1                       # What write queue length does an incoming req see
system.mem_ctrls.wrQLenPdf::2                       1                       # What write queue length does an incoming req see
system.mem_ctrls.wrQLenPdf::3                       1                       # What write queue length does an incoming req see
system.mem_ctrls.wrQLenPdf::4                       1                       # What write queue length does an incoming req see
system.mem_ctrls.wrQLenPdf::5                       1                       # What write queue length does an incoming req see
system.mem_ctrls.wrQLenPdf::6                       1                       # What write queue length does an incoming req see
system.mem_ctrls.wrQLenPdf::7                       1                       # What write queue length does an incoming req see
system.mem_ctrls.wrQLenPdf::8                       1                       # What write queue length does an incoming req see
system.mem_ctrls.wrQLenPdf::9                       1                       # What write queue length does an incoming req see
system.mem_ctrls.wrQLenPdf::10                      1                       # What write queue length does an incoming req see
system.mem_ctrls.wrQLenPdf::11                      1                       # What write queue length does an incoming req see
system.mem_ctrls.wrQLenPdf::12                      1                       # What write queue length does an incoming req see
system.mem_ctrls.wrQLenPdf::13                      1                       # What write queue length does an incoming req see
system.mem_ctrls.wrQLenPdf::14                      1                       # What write queue length does an incoming req see
system.mem_ctrls.wrQLenPdf::15                     48                       # What write queue length does an incoming req see
system.mem_ctrls.wrQLenPdf::16                     53                       # What write queue length does an incoming req see
system.mem_ctrls.wrQLenPdf::17                    189                       # What write queue length does an incoming req see
system.mem_ctrls.wrQLenPdf::18                    296                       # What write queue length does an incoming req see
system.mem_ctrls.wrQLenPdf::19                    359                       # What write queue length does an incoming req see
system.mem_ctrls.wrQLenPdf::20                    388                       # What write queue length does an incoming req see
system.mem_ctrls.wrQLenPdf::21                    401                       # What write queue length does an incoming req see
system.mem_ctrls.wrQLenPdf::22                    397                       # What write queue length does an incoming req see
system.mem_ctrls.wrQLenPdf::23                    407                       # What write queue length does an incoming req see
system.mem_ctrls.wrQLenPdf::24                    408                       # What write queue length does an incoming req see
system.mem_ctrls.wrQLenPdf::25                    424                       # What write queue length does an incoming req see
system.mem_ctrls.wrQLenPdf::26                    458                       # What write queue length does an incoming req see
system.mem_ctrls.wrQLenPdf::27                    431                       # What write queue length does an incoming req see
system.mem_ctrls.wrQLenPdf::28                    440                       # What write queue length does an incoming req see
system.mem_ctrls.wrQLenPdf::29                    471                       # What write queue length does an incoming req see
system.mem_ctrls.wrQLenPdf::30                    399                       # What write queue length does an incoming req see
system.mem_ctrls.wrQLenPdf::31                    396                       # What write queue length does an incoming req see
system.mem_ctrls.wrQLenPdf::32                    389                       # What write queue length does an incoming req see
system.mem_ctrls.wrQLenPdf::33                      2                       # What write queue length does an incoming req see
system.mem_ctrls.wrQLenPdf::34                      1                       # What write queue length does an incoming req see
system.mem_ctrls.wrQLenPdf::35                      1                       # What write queue length does an incoming req see
system.mem_ctrls.wrQLenPdf::36                      0                       # What write queue length does an incoming req see
system.mem_ctrls.wrQLenPdf::37                      0                       # What write queue length does an incoming req see
system.mem_ctrls.wrQLenPdf::38                      0                       # What write queue length does an incoming req see
system.mem_ctrls.wrQLenPdf::39                      0                       # What write queue length does an incoming req see
system.mem_ctrls.wrQLenPdf::40                      0                       # What write queue length does an incoming req see
system.mem_ctrls.wrQLenPdf::41                      0                       # What write queue length does an incoming req see
system.mem_ctrls.wrQLenPdf::42                      0                       # What write queue length does an incoming req see
system.mem_ctrls.wrQLenPdf::43                      0                       # What write queue length does an incoming req see
system.mem_ctrls.wrQLenPdf::44                      0                       # What write queue length does an incoming req see
system.mem_ctrls.wrQLenPdf::45                      0                       # What write queue length does an incoming req see
system.mem_ctrls.wrQLenPdf::46                      0                       # What write queue length does an incoming req see
system.mem_ctrls.wrQLenPdf::47                      0                       # What write queue length does an incoming req see
system.mem_ctrls.wrQLenPdf::48                      0                       # What write queue length does an incoming req see
system.mem_ctrls.wrQLenPdf::49                      0                       # What write queue length does an incoming req see
system.mem_ctrls.wrQLenPdf::50                      0                       # What write queue length does an incoming req see
system.mem_ctrls.wrQLenPdf::51                      0                       # What write queue length does an incoming req see
system.mem_ctrls.wrQLenPdf::52                      0                       # What write queue length does an incoming req see
system.mem_ctrls.wrQLenPdf::53                      0                       # What write queue length does an incoming req see
system.mem_ctrls.wrQLenPdf::54                      0                       # What write queue length does an incoming req see
system.mem_ctrls.wrQLenPdf::55                      0                       # What write queue length does an incoming req see
system.mem_ctrls.wrQLenPdf::56                      0                       # What write queue length does an incoming req see
system.mem_ctrls.wrQLenPdf::57                      0                       # What write queue length does an incoming req see
system.mem_ctrls.wrQLenPdf::58                      0                       # What write queue length does an incoming req see
system.mem_ctrls.wrQLenPdf::59                      0                       # What write queue length does an incoming req see
system.mem_ctrls.wrQLenPdf::60                      0                       # What write queue length does an incoming req see
system.mem_ctrls.wrQLenPdf::61                      0                       # What write queue length does an incoming req see
system.mem_ctrls.wrQLenPdf::62                      0                       # What write queue length does an incoming req see
system.mem_ctrls.wrQLenPdf::63                      0                       # What write queue length does an incoming req see
system.mem_ctrls.bytesPerActivate::samples         4110                       # Bytes accessed per row activation
system.mem_ctrls.bytesPerActivate::mean    270.777616                       # Bytes accessed per row activation
system.mem_ctrls.bytesPerActivate::gmean   165.449825                       # Bytes accessed per row activation
system.mem_ctrls.bytesPerActivate::stdev   295.585143                       # Bytes accessed per row activation
system.mem_ctrls.bytesPerActivate::0-127         1609     39.15%     39.15% # Bytes accessed per row activation
system.mem_ctrls.bytesPerActivate::128-255         1028     25.01%     64.16% # Bytes accessed per row activation
system.mem_ctrls.bytesPerActivate::256-383          512     12.46%     76.62% # Bytes accessed per row activation
system.mem_ctrls.bytesPerActivate::384-511          221      5.38%     82.00% # Bytes accessed per row activation
system.mem_ctrls.bytesPerActivate::512-639          159      3.87%     85.86% # Bytes accessed per row activation
system.mem_ctrls.bytesPerActivate::640-767          102      2.48%     88.35% # Bytes accessed per row activation
system.mem_ctrls.bytesPerActivate::768-895           79      1.92%     90.27% # Bytes accessed per row activation
system.mem_ctrls.bytesPerActivate::896-1023           44      1.07%     91.34% # Bytes accessed per row activation
system.mem_ctrls.bytesPerActivate::1024-1151          356      8.66%    100.00% # Bytes accessed per row activation
system.mem_ctrls.bytesPerActivate::total         4110                       # Bytes accessed per row activation
system.mem_ctrls.rdPerTurnAround::samples          388                       # Reads before turning the bus around for writes
system.mem_ctrls.rdPerTurnAround::mean      28.432990                       # Reads before turning the bus around for writes
system.mem_ctrls.rdPerTurnAround::gmean     25.521837                       # Reads before turning the bus around for writes
system.mem_ctrls.rdPerTurnAround::stdev     15.562598                       # Reads before turning the bus around for writes
system.mem_ctrls.rdPerTurnAround::8-11              7      1.80%      1.80% # Reads before turning the bus around for writes
system.mem_ctrls.rdPerTurnAround::12-15            16      4.12%      5.93% # Reads before turning the bus around for writes
system.mem_ctrls.rdPerTurnAround::16-19            71     18.30%     24.23% # Reads before turning the bus around for writes
system.mem_ctrls.rdPerTurnAround::20-23            73     18.81%     43.04% # Reads before turning the bus around for writes
system.mem_ctrls.rdPerTurnAround::24-27            70     18.04%     61.08% # Reads before turning the bus around for writes
system.mem_ctrls.rdPerTurnAround::28-31            53     13.66%     74.74% # Reads before turning the bus around for writes
system.mem_ctrls.rdPerTurnAround::32-35            21      5.41%     80.15% # Reads before turning the bus around for writes
system.mem_ctrls.rdPerTurnAround::36-39            18      4.64%     84.79% # Reads before turning the bus around for writes
system.mem_ctrls.rdPerTurnAround::40-43            11      2.84%     87.63% # Reads before turning the bus around for writes
system.mem_ctrls.rdPerTurnAround::44-47            12      3.09%     90.72% # Reads before turning the bus around for writes
system.mem_ctrls.rdPerTurnAround::48-51             5      1.29%     92.01% # Reads before turning the bus around for writes
system.mem_ctrls.rdPerTurnAround::52-55             5      1.29%     93.30% # Reads before turning the bus around for writes
system.mem_ctrls.rdPerTurnAround::56-59             6      1.55%     94.85% # Reads before turning the bus around for writes
system.mem_ctrls.rdPerTurnAround::60-63             1      0.26%     95.10% # Reads before turning the bus around for writes
system.mem_ctrls.rdPerTurnAround::64-67             5      1.29%     96.39% # Reads before turning the bus around for writes
system.mem_ctrls.rdPerTurnAround::68-71             1      0.26%     96.65% # Reads before turning the bus around for writes
system.mem_ctrls.rdPerTurnAround::72-75             6      1.55%     98.20% # Reads before turning the bus around for writes
system.mem_ctrls.rdPerTurnAround::76-79             1      0.26%     98.45% # Reads before turning the bus around for writes
system.mem_ctrls.rdPerTurnAround::84-87             1      0.26%     98.71% # Reads before turning the bus around for writes
system.mem_ctrls.rdPerTurnAround::92-95             1      0.26%     98.97% # Reads before turning the bus around for writes
system.mem_ctrls.rdPerTurnAround::96-99             1      0.26%     99.23% # Reads before turning the bus around for writes
system.mem_ctrls.rdPerTurnAround::108-111            2      0.52%     99.74% # Reads before turning the bus around for writes
system.mem_ctrls.rdPerTurnAround::112-115            1      0.26%    100.00% # Reads before turning the bus around for writes
system.mem_ctrls.rdPerTurnAround::total           388                       # Reads before turning the bus around for writes
system.mem_ctrls.wrPerTurnAround::samples          388                       # Writes before turning the bus around for reads
system.mem_ctrls.wrPerTurnAround::mean      16.342784                       # Writes before turning the bus around for reads
system.mem_ctrls.wrPerTurnAround::gmean     16.320411                       # Writes before turning the bus around for reads
system.mem_ctrls.wrPerTurnAround::stdev      0.894152                       # Writes before turning the bus around for reads
system.mem_ctrls.wrPerTurnAround::16              333     85.82%     85.82% # Writes before turning the bus around for reads
system.mem_ctrls.wrPerTurnAround::17                3      0.77%     86.60% # Writes before turning the bus around for reads
system.mem_ctrls.wrPerTurnAround::18               32      8.25%     94.85% # Writes before turning the bus around for reads
system.mem_ctrls.wrPerTurnAround::19               15      3.87%     98.71% # Writes before turning the bus around for reads
system.mem_ctrls.wrPerTurnAround::20                4      1.03%     99.74% # Writes before turning the bus around for reads
system.mem_ctrls.wrPerTurnAround::21                1      0.26%    100.00% # Writes before turning the bus around for reads
system.mem_ctrls.wrPerTurnAround::total           388                       # Writes before turning the bus around for reads
system.mem_ctrls.totQLat                    229894750                       # Total ticks spent queuing
system.mem_ctrls.totMemAccLat               437063500                       # Total ticks spent from burst creation until serviced by the DRAM
system.mem_ctrls.totBusLat                   55245000                       # Total ticks spent in databus transfers
system.mem_ctrls.avgQLat                     20806.84                       # Average queueing delay per DRAM burst
system.mem_ctrls.avgBusLat                    5000.00                       # Average bus latency per DRAM burst
system.mem_ctrls.avgMemAccLat                39556.84                       # Average memory access latency per DRAM burst
system.mem_ctrls.avgRdBW                       952.67                       # Average DRAM read bandwidth in MiByte/s
system.mem_ctrls.avgWrBW                       546.74                       # Average achieved write bandwidth in MiByte/s
system.mem_ctrls.avgRdBWSys                    953.71                       # Average system read bandwidth in MiByte/s
system.mem_ctrls.avgWrBWSys                    549.50                       # Average system write bandwidth in MiByte/s
system.mem_ctrls.peakBW                      12800.00                       # Theoretical peak bandwidth in MiByte/s
system.mem_ctrls.busUtil                        11.71                       # Data bus utilization in percentage
system.mem_ctrls.busUtilRead                     7.44                       # Data bus utilization in percentage for reads
system.mem_ctrls.busUtilWrite                    4.27                       # Data bus utilization in percentage for writes
system.mem_ctrls.avgRdQLen                       1.84                       # Average read queue length when enqueuing
system.mem_ctrls.avgWrQLen                      25.67                       # Average write queue length when enqueuing
system.mem_ctrls.readRowHits                     9024                       # Number of row buffer hits during reads
system.mem_ctrls.writeRowHits                    4255                       # Number of row buffer hits during writes
system.mem_ctrls.readRowHitRate                 81.67                       # Row buffer hit rate for reads
system.mem_ctrls.writeRowHitRate                66.77                       # Row buffer hit rate for writes
system.mem_ctrls.avgGap                      42430.97                       # Average gap between requests
system.mem_ctrls.pageHitRate                    76.22                       # Row buffer hit rate, read and write combined
system.mem_ctrls_0.actEnergy                 15029280                       # Energy for activate commands per rank (pJ)
system.mem_ctrls_0.preEnergy                  8200500                       # Energy for precharge commands per rank (pJ)
system.mem_ctrls_0.readEnergy                37783200                       # Energy for read commands per rank (pJ)
system.mem_ctrls_0.writeEnergy               20781360                       # Energy for write commands per rank (pJ)
system.mem_ctrls_0.refreshEnergy             48313200                       # Energy for refresh commands per rank (pJ)
system.mem_ctrls_0.actBackEnergy            460341405                       # Energy for active background per rank (pJ)
system.mem_ctrls_0.preBackEnergy             40164000                       # Energy for precharge background per rank (pJ)
system.mem_ctrls_0.totalEnergy              630612945                       # Total energy per rank (pJ)
system.mem_ctrls_0.averagePower            852.232920                       # Core power per rank (mW)
system.mem_ctrls_0.memoryStateTime::IDLE     63508750                       # Time in different power states
system.mem_ctrls_0.memoryStateTime::REF      24700000                       # Time in different power states
system.mem_ctrls_0.memoryStateTime::PRE_PDN            0                       # Time in different power states
system.mem_ctrls_0.memoryStateTime::ACT     651758750                       # Time in different power states
system.mem_ctrls_0.memoryStateTime::ACT_PDN            0                       # Time in different power states
system.mem_ctrls_1.actEnergy                 16042320                       # Energy for activate commands per rank (pJ)
system.mem_ctrls_1.preEnergy                  8753250                       # Energy for precharge commands per rank (pJ)
system.mem_ctrls_1.readEnergy                48391200                       # Energy for read commands per rank (pJ)
system.mem_ctrls_1.writeEnergy               20308320                       # Energy for write commands per rank (pJ)
system.mem_ctrls_1.refreshEnergy             48313200                       # Energy for refresh commands per rank (pJ)
system.mem_ctrls_1.actBackEnergy            459535140                       # Energy for active background per rank (pJ)
system.mem_ctrls_1.preBackEnergy             40871250                       # Energy for precharge background per rank (pJ)
system.mem_ctrls_1.totalEnergy              642214680                       # Total energy per rank (pJ)
system.mem_ctrls_1.averagePower            867.911920                       # Core power per rank (mW)
system.mem_ctrls_1.memoryStateTime::IDLE     64232250                       # Time in different power states
system.mem_ctrls_1.memoryStateTime::REF      24700000                       # Time in different power states
system.mem_ctrls_1.memoryStateTime::PRE_PDN            0                       # Time in different power states
system.mem_ctrls_1.memoryStateTime::ACT     651035250                       # Time in different power states
system.mem_ctrls_1.memoryStateTime::ACT_PDN            0                       # Time in different power states
system.cpu_voltage_domain.voltage                   1                       # Voltage in Volts
system.cpu_clk_domain.clock                       500                       # Clock period in ticks
system.cpu0.dtb.fetch_hits                          0                       # ITB hits
system.cpu0.dtb.fetch_misses                        0                       # ITB misses
system.cpu0.dtb.fetch_acv                           0                       # ITB acv
system.cpu0.dtb.fetch_accesses                      0                       # ITB accesses
system.cpu0.dtb.read_hits                           0                       # DTB read hits
system.cpu0.dtb.read_misses                         0                       # DTB read misses
system.cpu0.dtb.read_acv                            0                       # DTB read access violations
system.cpu0.dtb.read_accesses                       0                       # DTB read accesses
system.cpu0.dtb.write_hits                          0                       # DTB write hits
system.cpu0.dtb.write_misses                        0                       # DTB write misses
system.cpu0.dtb.write_acv                           0                       # DTB write access violations
system.cpu0.dtb.write_accesses                      0                       # DTB write accesses
system.cpu0.dtb.data_hits                           0                       # DTB hits
system.cpu0.dtb.data_misses                         0                       # DTB misses
system.cpu0.dtb.data_acv                            0                       # DTB access violations
system.cpu0.dtb.data_accesses                       0                       # DTB accesses
system.cpu0.itb.fetch_hits                          0                       # ITB hits
system.cpu0.itb.fetch_misses                        0                       # ITB misses
system.cpu0.itb.fetch_acv                           0                       # ITB acv
system.cpu0.itb.fetch_accesses                      0                       # ITB accesses
system.cpu0.itb.read_hits                           0                       # DTB read hits
system.cpu0.itb.read_misses                         0                       # DTB read misses
system.cpu0.itb.read_acv                            0                       # DTB read access violations
system.cpu0.itb.read_accesses                       0                       # DTB read accesses
system.cpu0.itb.write_hits                          0                       # DTB write hits
system.cpu0.itb.write_misses                        0                       # DTB write misses
system.cpu0.itb.write_acv                           0                       # DTB write access violations
system.cpu0.itb.write_accesses                      0                       # DTB write accesses
system.cpu0.itb.data_hits                           0                       # DTB hits
system.cpu0.itb.data_misses                         0                       # DTB misses
system.cpu0.itb.data_acv                            0                       # DTB access violations
system.cpu0.itb.data_accesses                       0                       # DTB accesses
system.cpu0.numCycles                               0                       # number of cpu cycles simulated
system.cpu0.numWorkItemsStarted                     0                       # number of work items this cpu started
system.cpu0.numWorkItemsCompleted                   0                       # number of work items this cpu completed
system.cpu0.committedInsts                          0                       # Number of instructions committed
system.cpu0.committedOps                            0                       # Number of ops (including micro ops) committed
system.cpu0.num_int_alu_accesses                    0                       # Number of integer alu accesses
system.cpu0.num_fp_alu_accesses                     0                       # Number of float alu accesses
system.cpu0.num_func_calls                          0                       # number of times a function call or return occured
system.cpu0.num_conditional_control_insts            0                       # number of instructions that are conditional controls
system.cpu0.num_int_insts                           0                       # number of integer instructions
system.cpu0.num_fp_insts                            0                       # number of float instructions
system.cpu0.num_int_register_reads                  0                       # number of times the integer registers were read
system.cpu0.num_int_register_writes                 0                       # number of times the integer registers were written
system.cpu0.num_fp_register_reads                   0                       # number of times the floating registers were read
system.cpu0.num_fp_register_writes                  0                       # number of times the floating registers were written
system.cpu0.num_mem_refs                            0                       # number of memory refs
system.cpu0.num_load_insts                          0                       # Number of load instructions
system.cpu0.num_store_insts                         0                       # Number of store instructions
system.cpu0.num_idle_cycles                         0                       # Number of idle cycles
system.cpu0.num_busy_cycles                         0                       # Number of busy cycles
system.cpu0.not_idle_fraction                       1                       # Percentage of non-idle cycles
system.cpu0.idle_fraction                           0                       # Percentage of idle cycles
system.cpu0.op_class::No_OpClass                    0                       # Class of executed instruction
system.cpu0.op_class::IntAlu                        0                       # Class of executed instruction
system.cpu0.op_class::IntMult                       0                       # Class of executed instruction
system.cpu0.op_class::IntDiv                        0                       # Class of executed instruction
system.cpu0.op_class::FloatAdd                      0                       # Class of executed instruction
system.cpu0.op_class::FloatCmp                      0                       # Class of executed instruction
system.cpu0.op_class::FloatCvt                      0                       # Class of executed instruction
system.cpu0.op_class::FloatMult                     0                       # Class of executed instruction
system.cpu0.op_class::FloatDiv                      0                       # Class of executed instruction
system.cpu0.op_class::FloatSqrt                     0                       # Class of executed instruction
system.cpu0.op_class::SimdAdd                       0                       # Class of executed instruction
system.cpu0.op_class::SimdAddAcc                    0                       # Class of executed instruction
system.cpu0.op_class::SimdAlu                       0                       # Class of executed instruction
system.cpu0.op_class::SimdCmp                       0                       # Class of executed instruction
system.cpu0.op_class::SimdCvt                       0                       # Class of executed instruction
system.cpu0.op_class::SimdMisc                      0                       # Class of executed instruction
system.cpu0.op_class::SimdMult                      0                       # Class of executed instruction
system.cpu0.op_class::SimdMultAcc                   0                       # Class of executed instruction
system.cpu0.op_class::SimdShift                     0                       # Class of executed instruction
system.cpu0.op_class::SimdShiftAcc                  0                       # Class of executed instruction
system.cpu0.op_class::SimdSqrt                      0                       # Class of executed instruction
system.cpu0.op_class::SimdFloatAdd                  0                       # Class of executed instruction
system.cpu0.op_class::SimdFloatAlu                  0                       # Class of executed instruction
system.cpu0.op_class::SimdFloatCmp                  0                       # Class of executed instruction
system.cpu0.op_class::SimdFloatCvt                  0                       # Class of executed instruction
system.cpu0.op_class::SimdFloatDiv                  0                       # Class of executed instruction
system.cpu0.op_class::SimdFloatMisc                 0                       # Class of executed instruction
system.cpu0.op_class::SimdFloatMult                 0                       # Class of executed instruction
system.cpu0.op_class::SimdFloatMultAcc              0                       # Class of executed instruction
system.cpu0.op_class::SimdFloatSqrt                 0                       # Class of executed instruction
system.cpu0.op_class::MemRead                       0                       # Class of executed instruction
system.cpu0.op_class::MemWrite                      0                       # Class of executed instruction
system.cpu0.op_class::IprAccess                     0                       # Class of executed instruction
system.cpu0.op_class::InstPrefetch                  0                       # Class of executed instruction
system.cpu0.op_class::total                         0                       # Class of executed instruction
system.cpu0.kern.inst.arm                           0                       # number of arm instructions executed
system.cpu0.kern.inst.quiesce                       3                       # number of quiesce instructions executed
system.cpu0.kern.inst.hwrei                       597                       # number of hwrei instructions executed
system.cpu0.kern.ipl_count::0                     168     46.28%     46.28% # number of times we switched to this ipl
system.cpu0.kern.ipl_count::22                      1      0.28%     46.56% # number of times we switched to this ipl
system.cpu0.kern.ipl_count::30                      1      0.28%     46.83% # number of times we switched to this ipl
system.cpu0.kern.ipl_count::31                    193     53.17%    100.00% # number of times we switched to this ipl
system.cpu0.kern.ipl_count::total                 363                       # number of times we switched to this ipl
system.cpu0.kern.ipl_good::0                      168     49.85%     49.85% # number of times we switched to this ipl from a different ipl
system.cpu0.kern.ipl_good::22                       1      0.30%     50.15% # number of times we switched to this ipl from a different ipl
system.cpu0.kern.ipl_good::30                       1      0.30%     50.45% # number of times we switched to this ipl from a different ipl
system.cpu0.kern.ipl_good::31                     167     49.55%    100.00% # number of times we switched to this ipl from a different ipl
system.cpu0.kern.ipl_good::total                  337                       # number of times we switched to this ipl from a different ipl
system.cpu0.kern.ipl_ticks::0               439373500     91.63%     91.63% # number of cycles we spent at this ipl
system.cpu0.kern.ipl_ticks::22                 416000      0.09%     91.71% # number of cycles we spent at this ipl
system.cpu0.kern.ipl_ticks::30                1355000      0.28%     92.00% # number of cycles we spent at this ipl
system.cpu0.kern.ipl_ticks::31               38384500      8.00%    100.00% # number of cycles we spent at this ipl
system.cpu0.kern.ipl_ticks::total           479529000                       # number of cycles we spent at this ipl
system.cpu0.kern.ipl_used::0                        1                       # fraction of swpipl calls that actually changed the ipl
system.cpu0.kern.ipl_used::22                       1                       # fraction of swpipl calls that actually changed the ipl
system.cpu0.kern.ipl_used::30                       1                       # fraction of swpipl calls that actually changed the ipl
system.cpu0.kern.ipl_used::31                0.865285                       # fraction of swpipl calls that actually changed the ipl
system.cpu0.kern.ipl_used::total             0.928375                       # fraction of swpipl calls that actually changed the ipl
system.cpu0.kern.syscall::2                         1     33.33%     33.33% # number of syscalls executed
system.cpu0.kern.syscall::3                         1     33.33%     66.67% # number of syscalls executed
system.cpu0.kern.syscall::19                        1     33.33%    100.00% # number of syscalls executed
system.cpu0.kern.syscall::total                     3                       # number of syscalls executed
system.cpu0.kern.callpal::wripir                    1      0.26%      0.26% # number of callpals executed
system.cpu0.kern.callpal::swpctx                   12      3.08%      3.34% # number of callpals executed
system.cpu0.kern.callpal::tbi                       2      0.51%      3.86% # number of callpals executed
system.cpu0.kern.callpal::swpipl                  342     87.92%     91.77% # number of callpals executed
system.cpu0.kern.callpal::rdps                      2      0.51%     92.29% # number of callpals executed
system.cpu0.kern.callpal::rdusp                     1      0.26%     92.54% # number of callpals executed
system.cpu0.kern.callpal::rti                      19      4.88%     97.43% # number of callpals executed
system.cpu0.kern.callpal::callsys                   9      2.31%     99.74% # number of callpals executed
system.cpu0.kern.callpal::imb                       1      0.26%    100.00% # number of callpals executed
system.cpu0.kern.callpal::total                   389                       # number of callpals executed
system.cpu0.kern.mode_switch::kernel               32                       # number of protection mode switches
system.cpu0.kern.mode_switch::user                 17                       # number of protection mode switches
system.cpu0.kern.mode_switch::idle                  0                       # number of protection mode switches
system.cpu0.kern.mode_good::kernel                 18                      
system.cpu0.kern.mode_good::user                   17                      
system.cpu0.kern.mode_good::idle                    0                      
system.cpu0.kern.mode_switch_good::kernel     0.562500                       # fraction of useful protection mode switches
system.cpu0.kern.mode_switch_good::user             1                       # fraction of useful protection mode switches
system.cpu0.kern.mode_switch_good::idle           nan                       # fraction of useful protection mode switches
system.cpu0.kern.mode_switch_good::total     0.714286                       # fraction of useful protection mode switches
system.cpu0.kern.mode_ticks::kernel         118981500     69.49%     69.49% # number of ticks spent at the given mode
system.cpu0.kern.mode_ticks::user            52248000     30.51%    100.00% # number of ticks spent at the given mode
system.cpu0.kern.mode_ticks::idle                   0      0.00%    100.00% # number of ticks spent at the given mode
system.cpu0.kern.swap_context                      12                       # number of times the context was actually changed
system.cpu0.dcache.tags.replacements             4864                       # number of replacements
system.cpu0.dcache.tags.tagsinuse          502.064227                       # Cycle average of tags in use
system.cpu0.dcache.tags.total_refs              55267                       # Total number of references to valid blocks.
system.cpu0.dcache.tags.sampled_refs             4864                       # Sample count of references to valid blocks.
system.cpu0.dcache.tags.avg_refs            11.362459                       # Average number of references to valid blocks.
system.cpu0.dcache.tags.warmup_cycle                0                       # Cycle when the warmup percentage was hit.
system.cpu0.dcache.tags.occ_blocks::cpu0.data    22.343939                       # Average occupied blocks per requestor
system.cpu0.dcache.tags.occ_blocks::switch_cpus0.data   479.720288                       # Average occupied blocks per requestor
system.cpu0.dcache.tags.occ_percent::cpu0.data     0.043641                       # Average percentage of cache occupancy
system.cpu0.dcache.tags.occ_percent::switch_cpus0.data     0.936954                       # Average percentage of cache occupancy
system.cpu0.dcache.tags.occ_percent::total     0.980594                       # Average percentage of cache occupancy
system.cpu0.dcache.tags.occ_task_id_blocks::1024          500                       # Occupied blocks per task id
system.cpu0.dcache.tags.age_task_id_blocks_1024::2          500                       # Occupied blocks per task id
system.cpu0.dcache.tags.occ_task_id_percent::1024     0.976562                       # Percentage of cache occupancy per task id
system.cpu0.dcache.tags.tag_accesses           288605                       # Number of tag accesses
system.cpu0.dcache.tags.data_accesses          288605                       # Number of data accesses
system.cpu0.dcache.ReadReq_hits::switch_cpus0.data        31993                       # number of ReadReq hits
system.cpu0.dcache.ReadReq_hits::total          31993                       # number of ReadReq hits
system.cpu0.dcache.WriteReq_hits::switch_cpus0.data        14086                       # number of WriteReq hits
system.cpu0.dcache.WriteReq_hits::total         14086                       # number of WriteReq hits
system.cpu0.dcache.LoadLockedReq_hits::switch_cpus0.data          552                       # number of LoadLockedReq hits
system.cpu0.dcache.LoadLockedReq_hits::total          552                       # number of LoadLockedReq hits
system.cpu0.dcache.StoreCondReq_hits::switch_cpus0.data          599                       # number of StoreCondReq hits
system.cpu0.dcache.StoreCondReq_hits::total          599                       # number of StoreCondReq hits
system.cpu0.dcache.demand_hits::switch_cpus0.data        46079                       # number of demand (read+write) hits
system.cpu0.dcache.demand_hits::total           46079                       # number of demand (read+write) hits
system.cpu0.dcache.overall_hits::switch_cpus0.data        46079                       # number of overall hits
system.cpu0.dcache.overall_hits::total          46079                       # number of overall hits
system.cpu0.dcache.ReadReq_misses::switch_cpus0.data         9504                       # number of ReadReq misses
system.cpu0.dcache.ReadReq_misses::total         9504                       # number of ReadReq misses
system.cpu0.dcache.WriteReq_misses::switch_cpus0.data        14013                       # number of WriteReq misses
system.cpu0.dcache.WriteReq_misses::total        14013                       # number of WriteReq misses
system.cpu0.dcache.LoadLockedReq_misses::switch_cpus0.data          154                       # number of LoadLockedReq misses
system.cpu0.dcache.LoadLockedReq_misses::total          154                       # number of LoadLockedReq misses
system.cpu0.dcache.StoreCondReq_misses::switch_cpus0.data           21                       # number of StoreCondReq misses
system.cpu0.dcache.StoreCondReq_misses::total           21                       # number of StoreCondReq misses
system.cpu0.dcache.demand_misses::switch_cpus0.data        23517                       # number of demand (read+write) misses
system.cpu0.dcache.demand_misses::total         23517                       # number of demand (read+write) misses
system.cpu0.dcache.overall_misses::switch_cpus0.data        23517                       # number of overall misses
system.cpu0.dcache.overall_misses::total        23517                       # number of overall misses
system.cpu0.dcache.ReadReq_miss_latency::switch_cpus0.data    290539672                       # number of ReadReq miss cycles
system.cpu0.dcache.ReadReq_miss_latency::total    290539672                       # number of ReadReq miss cycles
system.cpu0.dcache.WriteReq_miss_latency::switch_cpus0.data    312844278                       # number of WriteReq miss cycles
system.cpu0.dcache.WriteReq_miss_latency::total    312844278                       # number of WriteReq miss cycles
system.cpu0.dcache.LoadLockedReq_miss_latency::switch_cpus0.data      3105497                       # number of LoadLockedReq miss cycles
system.cpu0.dcache.LoadLockedReq_miss_latency::total      3105497                       # number of LoadLockedReq miss cycles
system.cpu0.dcache.StoreCondReq_miss_latency::switch_cpus0.data       179503                       # number of StoreCondReq miss cycles
system.cpu0.dcache.StoreCondReq_miss_latency::total       179503                       # number of StoreCondReq miss cycles
system.cpu0.dcache.StoreCondFailReq_miss_latency::switch_cpus0.data        16000                       # number of StoreCondFailReq miss cycles
system.cpu0.dcache.StoreCondFailReq_miss_latency::total        16000                       # number of StoreCondFailReq miss cycles
system.cpu0.dcache.demand_miss_latency::switch_cpus0.data    603383950                       # number of demand (read+write) miss cycles
system.cpu0.dcache.demand_miss_latency::total    603383950                       # number of demand (read+write) miss cycles
system.cpu0.dcache.overall_miss_latency::switch_cpus0.data    603383950                       # number of overall miss cycles
system.cpu0.dcache.overall_miss_latency::total    603383950                       # number of overall miss cycles
system.cpu0.dcache.ReadReq_accesses::switch_cpus0.data        41497                       # number of ReadReq accesses(hits+misses)
system.cpu0.dcache.ReadReq_accesses::total        41497                       # number of ReadReq accesses(hits+misses)
system.cpu0.dcache.WriteReq_accesses::switch_cpus0.data        28099                       # number of WriteReq accesses(hits+misses)
system.cpu0.dcache.WriteReq_accesses::total        28099                       # number of WriteReq accesses(hits+misses)
system.cpu0.dcache.LoadLockedReq_accesses::switch_cpus0.data          706                       # number of LoadLockedReq accesses(hits+misses)
system.cpu0.dcache.LoadLockedReq_accesses::total          706                       # number of LoadLockedReq accesses(hits+misses)
system.cpu0.dcache.StoreCondReq_accesses::switch_cpus0.data          620                       # number of StoreCondReq accesses(hits+misses)
system.cpu0.dcache.StoreCondReq_accesses::total          620                       # number of StoreCondReq accesses(hits+misses)
system.cpu0.dcache.demand_accesses::switch_cpus0.data        69596                       # number of demand (read+write) accesses
system.cpu0.dcache.demand_accesses::total        69596                       # number of demand (read+write) accesses
system.cpu0.dcache.overall_accesses::switch_cpus0.data        69596                       # number of overall (read+write) accesses
system.cpu0.dcache.overall_accesses::total        69596                       # number of overall (read+write) accesses
system.cpu0.dcache.ReadReq_miss_rate::switch_cpus0.data     0.229029                       # miss rate for ReadReq accesses
system.cpu0.dcache.ReadReq_miss_rate::total     0.229029                       # miss rate for ReadReq accesses
system.cpu0.dcache.WriteReq_miss_rate::switch_cpus0.data     0.498701                       # miss rate for WriteReq accesses
system.cpu0.dcache.WriteReq_miss_rate::total     0.498701                       # miss rate for WriteReq accesses
system.cpu0.dcache.LoadLockedReq_miss_rate::switch_cpus0.data     0.218130                       # miss rate for LoadLockedReq accesses
system.cpu0.dcache.LoadLockedReq_miss_rate::total     0.218130                       # miss rate for LoadLockedReq accesses
system.cpu0.dcache.StoreCondReq_miss_rate::switch_cpus0.data     0.033871                       # miss rate for StoreCondReq accesses
system.cpu0.dcache.StoreCondReq_miss_rate::total     0.033871                       # miss rate for StoreCondReq accesses
system.cpu0.dcache.demand_miss_rate::switch_cpus0.data     0.337907                       # miss rate for demand accesses
system.cpu0.dcache.demand_miss_rate::total     0.337907                       # miss rate for demand accesses
system.cpu0.dcache.overall_miss_rate::switch_cpus0.data     0.337907                       # miss rate for overall accesses
system.cpu0.dcache.overall_miss_rate::total     0.337907                       # miss rate for overall accesses
system.cpu0.dcache.ReadReq_avg_miss_latency::switch_cpus0.data 30570.251684                       # average ReadReq miss latency
system.cpu0.dcache.ReadReq_avg_miss_latency::total 30570.251684                       # average ReadReq miss latency
system.cpu0.dcache.WriteReq_avg_miss_latency::switch_cpus0.data 22325.289231                       # average WriteReq miss latency
system.cpu0.dcache.WriteReq_avg_miss_latency::total 22325.289231                       # average WriteReq miss latency
system.cpu0.dcache.LoadLockedReq_avg_miss_latency::switch_cpus0.data 20165.564935                       # average LoadLockedReq miss latency
system.cpu0.dcache.LoadLockedReq_avg_miss_latency::total 20165.564935                       # average LoadLockedReq miss latency
system.cpu0.dcache.StoreCondReq_avg_miss_latency::switch_cpus0.data  8547.761905                       # average StoreCondReq miss latency
system.cpu0.dcache.StoreCondReq_avg_miss_latency::total  8547.761905                       # average StoreCondReq miss latency
system.cpu0.dcache.StoreCondFailReq_avg_miss_latency::switch_cpus0.data          inf                       # average StoreCondFailReq miss latency
system.cpu0.dcache.StoreCondFailReq_avg_miss_latency::total          inf                       # average StoreCondFailReq miss latency
system.cpu0.dcache.demand_avg_miss_latency::switch_cpus0.data 25657.352128                       # average overall miss latency
system.cpu0.dcache.demand_avg_miss_latency::total 25657.352128                       # average overall miss latency
system.cpu0.dcache.overall_avg_miss_latency::switch_cpus0.data 25657.352128                       # average overall miss latency
system.cpu0.dcache.overall_avg_miss_latency::total 25657.352128                       # average overall miss latency
system.cpu0.dcache.blocked_cycles::no_mshrs        21627                       # number of cycles access was blocked
system.cpu0.dcache.blocked_cycles::no_targets          244                       # number of cycles access was blocked
system.cpu0.dcache.blocked::no_mshrs             1311                       # number of cycles access was blocked
system.cpu0.dcache.blocked::no_targets              6                       # number of cycles access was blocked
system.cpu0.dcache.avg_blocked_cycles::no_mshrs    16.496568                       # average number of cycles each access was blocked
system.cpu0.dcache.avg_blocked_cycles::no_targets    40.666667                       # average number of cycles each access was blocked
system.cpu0.dcache.fast_writes                      0                       # number of fast writes performed
system.cpu0.dcache.cache_copies                     0                       # number of cache copies performed
system.cpu0.dcache.writebacks::writebacks         3492                       # number of writebacks
system.cpu0.dcache.writebacks::total             3492                       # number of writebacks
system.cpu0.dcache.ReadReq_mshr_hits::switch_cpus0.data         6709                       # number of ReadReq MSHR hits
system.cpu0.dcache.ReadReq_mshr_hits::total         6709                       # number of ReadReq MSHR hits
system.cpu0.dcache.WriteReq_mshr_hits::switch_cpus0.data        11925                       # number of WriteReq MSHR hits
system.cpu0.dcache.WriteReq_mshr_hits::total        11925                       # number of WriteReq MSHR hits
system.cpu0.dcache.LoadLockedReq_mshr_hits::switch_cpus0.data           55                       # number of LoadLockedReq MSHR hits
system.cpu0.dcache.LoadLockedReq_mshr_hits::total           55                       # number of LoadLockedReq MSHR hits
system.cpu0.dcache.demand_mshr_hits::switch_cpus0.data        18634                       # number of demand (read+write) MSHR hits
system.cpu0.dcache.demand_mshr_hits::total        18634                       # number of demand (read+write) MSHR hits
system.cpu0.dcache.overall_mshr_hits::switch_cpus0.data        18634                       # number of overall MSHR hits
system.cpu0.dcache.overall_mshr_hits::total        18634                       # number of overall MSHR hits
system.cpu0.dcache.ReadReq_mshr_misses::switch_cpus0.data         2795                       # number of ReadReq MSHR misses
system.cpu0.dcache.ReadReq_mshr_misses::total         2795                       # number of ReadReq MSHR misses
system.cpu0.dcache.WriteReq_mshr_misses::switch_cpus0.data         2088                       # number of WriteReq MSHR misses
system.cpu0.dcache.WriteReq_mshr_misses::total         2088                       # number of WriteReq MSHR misses
system.cpu0.dcache.LoadLockedReq_mshr_misses::switch_cpus0.data           99                       # number of LoadLockedReq MSHR misses
system.cpu0.dcache.LoadLockedReq_mshr_misses::total           99                       # number of LoadLockedReq MSHR misses
system.cpu0.dcache.StoreCondReq_mshr_misses::switch_cpus0.data           21                       # number of StoreCondReq MSHR misses
system.cpu0.dcache.StoreCondReq_mshr_misses::total           21                       # number of StoreCondReq MSHR misses
system.cpu0.dcache.demand_mshr_misses::switch_cpus0.data         4883                       # number of demand (read+write) MSHR misses
system.cpu0.dcache.demand_mshr_misses::total         4883                       # number of demand (read+write) MSHR misses
system.cpu0.dcache.overall_mshr_misses::switch_cpus0.data         4883                       # number of overall MSHR misses
system.cpu0.dcache.overall_mshr_misses::total         4883                       # number of overall MSHR misses
system.cpu0.dcache.WriteReq_mshr_uncacheable::switch_cpus0.data            3                       # number of WriteReq MSHR uncacheable
system.cpu0.dcache.WriteReq_mshr_uncacheable::total            3                       # number of WriteReq MSHR uncacheable
system.cpu0.dcache.overall_mshr_uncacheable_misses::switch_cpus0.data            3                       # number of overall MSHR uncacheable misses
system.cpu0.dcache.overall_mshr_uncacheable_misses::total            3                       # number of overall MSHR uncacheable misses
system.cpu0.dcache.ReadReq_mshr_miss_latency::switch_cpus0.data     80092521                       # number of ReadReq MSHR miss cycles
system.cpu0.dcache.ReadReq_mshr_miss_latency::total     80092521                       # number of ReadReq MSHR miss cycles
system.cpu0.dcache.WriteReq_mshr_miss_latency::switch_cpus0.data     46562178                       # number of WriteReq MSHR miss cycles
system.cpu0.dcache.WriteReq_mshr_miss_latency::total     46562178                       # number of WriteReq MSHR miss cycles
system.cpu0.dcache.LoadLockedReq_mshr_miss_latency::switch_cpus0.data      2126003                       # number of LoadLockedReq MSHR miss cycles
system.cpu0.dcache.LoadLockedReq_mshr_miss_latency::total      2126003                       # number of LoadLockedReq MSHR miss cycles
system.cpu0.dcache.StoreCondReq_mshr_miss_latency::switch_cpus0.data       149497                       # number of StoreCondReq MSHR miss cycles
system.cpu0.dcache.StoreCondReq_mshr_miss_latency::total       149497                       # number of StoreCondReq MSHR miss cycles
system.cpu0.dcache.StoreCondFailReq_mshr_miss_latency::switch_cpus0.data        14500                       # number of StoreCondFailReq MSHR miss cycles
system.cpu0.dcache.StoreCondFailReq_mshr_miss_latency::total        14500                       # number of StoreCondFailReq MSHR miss cycles
system.cpu0.dcache.demand_mshr_miss_latency::switch_cpus0.data    126654699                       # number of demand (read+write) MSHR miss cycles
system.cpu0.dcache.demand_mshr_miss_latency::total    126654699                       # number of demand (read+write) MSHR miss cycles
system.cpu0.dcache.overall_mshr_miss_latency::switch_cpus0.data    126654699                       # number of overall MSHR miss cycles
system.cpu0.dcache.overall_mshr_miss_latency::total    126654699                       # number of overall MSHR miss cycles
system.cpu0.dcache.WriteReq_mshr_uncacheable_latency::switch_cpus0.data       673000                       # number of WriteReq MSHR uncacheable cycles
system.cpu0.dcache.WriteReq_mshr_uncacheable_latency::total       673000                       # number of WriteReq MSHR uncacheable cycles
system.cpu0.dcache.overall_mshr_uncacheable_latency::switch_cpus0.data       673000                       # number of overall MSHR uncacheable cycles
system.cpu0.dcache.overall_mshr_uncacheable_latency::total       673000                       # number of overall MSHR uncacheable cycles
system.cpu0.dcache.ReadReq_mshr_miss_rate::switch_cpus0.data     0.067354                       # mshr miss rate for ReadReq accesses
system.cpu0.dcache.ReadReq_mshr_miss_rate::total     0.067354                       # mshr miss rate for ReadReq accesses
system.cpu0.dcache.WriteReq_mshr_miss_rate::switch_cpus0.data     0.074309                       # mshr miss rate for WriteReq accesses
system.cpu0.dcache.WriteReq_mshr_miss_rate::total     0.074309                       # mshr miss rate for WriteReq accesses
system.cpu0.dcache.LoadLockedReq_mshr_miss_rate::switch_cpus0.data     0.140227                       # mshr miss rate for LoadLockedReq accesses
system.cpu0.dcache.LoadLockedReq_mshr_miss_rate::total     0.140227                       # mshr miss rate for LoadLockedReq accesses
system.cpu0.dcache.StoreCondReq_mshr_miss_rate::switch_cpus0.data     0.033871                       # mshr miss rate for StoreCondReq accesses
system.cpu0.dcache.StoreCondReq_mshr_miss_rate::total     0.033871                       # mshr miss rate for StoreCondReq accesses
system.cpu0.dcache.demand_mshr_miss_rate::switch_cpus0.data     0.070162                       # mshr miss rate for demand accesses
system.cpu0.dcache.demand_mshr_miss_rate::total     0.070162                       # mshr miss rate for demand accesses
system.cpu0.dcache.overall_mshr_miss_rate::switch_cpus0.data     0.070162                       # mshr miss rate for overall accesses
system.cpu0.dcache.overall_mshr_miss_rate::total     0.070162                       # mshr miss rate for overall accesses
system.cpu0.dcache.ReadReq_avg_mshr_miss_latency::switch_cpus0.data 28655.642576                       # average ReadReq mshr miss latency
system.cpu0.dcache.ReadReq_avg_mshr_miss_latency::total 28655.642576                       # average ReadReq mshr miss latency
system.cpu0.dcache.WriteReq_avg_mshr_miss_latency::switch_cpus0.data 22299.893678                       # average WriteReq mshr miss latency
system.cpu0.dcache.WriteReq_avg_mshr_miss_latency::total 22299.893678                       # average WriteReq mshr miss latency
system.cpu0.dcache.LoadLockedReq_avg_mshr_miss_latency::switch_cpus0.data 21474.777778                       # average LoadLockedReq mshr miss latency
system.cpu0.dcache.LoadLockedReq_avg_mshr_miss_latency::total 21474.777778                       # average LoadLockedReq mshr miss latency
system.cpu0.dcache.StoreCondReq_avg_mshr_miss_latency::switch_cpus0.data  7118.904762                       # average StoreCondReq mshr miss latency
system.cpu0.dcache.StoreCondReq_avg_mshr_miss_latency::total  7118.904762                       # average StoreCondReq mshr miss latency
system.cpu0.dcache.StoreCondFailReq_avg_mshr_miss_latency::switch_cpus0.data          inf                       # average StoreCondFailReq mshr miss latency
system.cpu0.dcache.StoreCondFailReq_avg_mshr_miss_latency::total          inf                       # average StoreCondFailReq mshr miss latency
system.cpu0.dcache.demand_avg_mshr_miss_latency::switch_cpus0.data 25937.886340                       # average overall mshr miss latency
system.cpu0.dcache.demand_avg_mshr_miss_latency::total 25937.886340                       # average overall mshr miss latency
system.cpu0.dcache.overall_avg_mshr_miss_latency::switch_cpus0.data 25937.886340                       # average overall mshr miss latency
system.cpu0.dcache.overall_avg_mshr_miss_latency::total 25937.886340                       # average overall mshr miss latency
system.cpu0.dcache.WriteReq_avg_mshr_uncacheable_latency::switch_cpus0.data 224333.333333                       # average WriteReq mshr uncacheable latency
system.cpu0.dcache.WriteReq_avg_mshr_uncacheable_latency::total 224333.333333                       # average WriteReq mshr uncacheable latency
system.cpu0.dcache.overall_avg_mshr_uncacheable_latency::switch_cpus0.data 224333.333333                       # average overall mshr uncacheable latency
system.cpu0.dcache.overall_avg_mshr_uncacheable_latency::total 224333.333333                       # average overall mshr uncacheable latency
system.cpu0.dcache.no_allocate_misses               0                       # Number of misses that were no-allocate
system.cpu0.icache.tags.replacements             3468                       # number of replacements
system.cpu0.icache.tags.tagsinuse          511.975151                       # Cycle average of tags in use
system.cpu0.icache.tags.total_refs             260133                       # Total number of references to valid blocks.
system.cpu0.icache.tags.sampled_refs             3468                       # Sample count of references to valid blocks.
system.cpu0.icache.tags.avg_refs            75.009516                       # Average number of references to valid blocks.
system.cpu0.icache.tags.warmup_cycle                0                       # Cycle when the warmup percentage was hit.
system.cpu0.icache.tags.occ_blocks::cpu0.inst    18.488989                       # Average occupied blocks per requestor
system.cpu0.icache.tags.occ_blocks::switch_cpus0.inst   493.486162                       # Average occupied blocks per requestor
system.cpu0.icache.tags.occ_percent::cpu0.inst     0.036111                       # Average percentage of cache occupancy
system.cpu0.icache.tags.occ_percent::switch_cpus0.inst     0.963840                       # Average percentage of cache occupancy
system.cpu0.icache.tags.occ_percent::total     0.999951                       # Average percentage of cache occupancy
system.cpu0.icache.tags.occ_task_id_blocks::1024          512                       # Occupied blocks per task id
system.cpu0.icache.tags.age_task_id_blocks_1024::2          512                       # Occupied blocks per task id
system.cpu0.icache.tags.occ_task_id_percent::1024            1                       # Percentage of cache occupancy per task id
system.cpu0.icache.tags.tag_accesses            84552                       # Number of tag accesses
system.cpu0.icache.tags.data_accesses           84552                       # Number of data accesses
system.cpu0.icache.ReadReq_hits::switch_cpus0.inst        36383                       # number of ReadReq hits
system.cpu0.icache.ReadReq_hits::total          36383                       # number of ReadReq hits
system.cpu0.icache.demand_hits::switch_cpus0.inst        36383                       # number of demand (read+write) hits
system.cpu0.icache.demand_hits::total           36383                       # number of demand (read+write) hits
system.cpu0.icache.overall_hits::switch_cpus0.inst        36383                       # number of overall hits
system.cpu0.icache.overall_hits::total          36383                       # number of overall hits
system.cpu0.icache.ReadReq_misses::switch_cpus0.inst         4158                       # number of ReadReq misses
system.cpu0.icache.ReadReq_misses::total         4158                       # number of ReadReq misses
system.cpu0.icache.demand_misses::switch_cpus0.inst         4158                       # number of demand (read+write) misses
[...]
system.switch_cpus3.fp_regfile_reads             7720                       # number of floating regfile reads
system.switch_cpus3.fp_regfile_writes            6068                       # number of floating regfile writes
system.switch_cpus3.misc_regfile_reads          88297                       # number of misc regfile reads
system.switch_cpus3.misc_regfile_writes         21177                       # number of misc regfile writes
system.tol2bus.trans_dist::ReadReq             201613                       # Transaction distribution
system.tol2bus.trans_dist::ReadResp            201611                       # Transaction distribution
system.tol2bus.trans_dist::WriteReq               329                       # Transaction distribution
system.tol2bus.trans_dist::WriteResp              329                       # Transaction distribution
system.tol2bus.trans_dist::Writeback            77247                       # Transaction distribution
system.tol2bus.trans_dist::WriteInvalidateReq         1923                       # Transaction distribution
system.tol2bus.trans_dist::UpgradeReq            5412                       # Transaction distribution
system.tol2bus.trans_dist::SCUpgradeReq          5681                       # Transaction distribution
system.tol2bus.trans_dist::UpgradeResp          11093                       # Transaction distribution
system.tol2bus.trans_dist::SCUpgradeFailReq           15                       # Transaction distribution
system.tol2bus.trans_dist::UpgradeFailResp           15                       # Transaction distribution
system.tol2bus.trans_dist::ReadExReq            29889                       # Transaction distribution
system.tol2bus.trans_dist::ReadExResp           29890                       # Transaction distribution
system.tol2bus.trans_dist::BadAddressError            1                       # Transaction distribution
system.tol2bus.pkt_count_system.cpu0.icache.mem_side::system.l2.cpu_side        17630                       # Packet count per connected master and slave (bytes)
system.tol2bus.pkt_count_system.cpu0.dcache.mem_side::system.l2.cpu_side        81274                       # Packet count per connected master and slave (bytes)
system.tol2bus.pkt_count_system.cpu1.icache.mem_side::system.l2.cpu_side        53951                       # Packet count per connected master and slave (bytes)
system.tol2bus.pkt_count_system.cpu1.dcache.mem_side::system.l2.cpu_side        55372                       # Packet count per connected master and slave (bytes)
system.tol2bus.pkt_count_system.cpu2.icache.mem_side::system.l2.cpu_side        67887                       # Packet count per connected master and slave (bytes)
system.tol2bus.pkt_count_system.cpu2.dcache.mem_side::system.l2.cpu_side       163562                       # Packet count per connected master and slave (bytes)
system.tol2bus.pkt_count_system.cpu3.icache.mem_side::system.l2.cpu_side        48196                       # Packet count per connected master and slave (bytes)
system.tol2bus.pkt_count_system.cpu3.dcache.mem_side::system.l2.cpu_side        53071                       # Packet count per connected master and slave (bytes)
system.tol2bus.pkt_count::total                540943                       # Packet count per connected master and slave (bytes)
system.tol2bus.pkt_size_system.cpu0.icache.mem_side::system.l2.cpu_side       564096                       # Cumulative packet size per connected master and slave (bytes)
system.tol2bus.pkt_size_system.cpu0.dcache.mem_side::system.l2.cpu_side      2890599                       # Cumulative packet size per connected master and slave (bytes)
system.tol2bus.pkt_size_system.cpu1.icache.mem_side::system.l2.cpu_side      1726016                       # Cumulative packet size per connected master and slave (bytes)
system.tol2bus.pkt_size_system.cpu1.dcache.mem_side::system.l2.cpu_side      1843984                       # Cumulative packet size per connected master and slave (bytes)
system.tol2bus.pkt_size_system.cpu2.icache.mem_side::system.l2.cpu_side      2172160                       # Cumulative packet size per connected master and slave (bytes)
system.tol2bus.pkt_size_system.cpu2.dcache.mem_side::system.l2.cpu_side      6326822                       # Cumulative packet size per connected master and slave (bytes)
system.tol2bus.pkt_size_system.cpu3.icache.mem_side::system.l2.cpu_side      1542272                       # Cumulative packet size per connected master and slave (bytes)
system.tol2bus.pkt_size_system.cpu3.dcache.mem_side::system.l2.cpu_side      1833952                       # Cumulative packet size per connected master and slave (bytes)
system.tol2bus.pkt_size::total               18899901                       # Cumulative packet size per connected master and slave (bytes)
system.tol2bus.snoops                           24105                       # Total snoops (count)
system.tol2bus.snoop_fanout::samples           322109                       # Request fanout histogram
system.tol2bus.snoop_fanout::mean            7.005979                       # Request fanout histogram
system.tol2bus.snoop_fanout::stdev           0.077095                       # Request fanout histogram
system.tol2bus.snoop_fanout::underflows             0      0.00%      0.00% # Request fanout histogram
system.tol2bus.snoop_fanout::0                      0      0.00%      0.00% # Request fanout histogram
system.tol2bus.snoop_fanout::1                      0      0.00%      0.00% # Request fanout histogram
system.tol2bus.snoop_fanout::2                      0      0.00%      0.00% # Request fanout histogram
system.tol2bus.snoop_fanout::3                      0      0.00%      0.00% # Request fanout histogram
system.tol2bus.snoop_fanout::4                      0      0.00%      0.00% # Request fanout histogram
system.tol2bus.snoop_fanout::5                      0      0.00%      0.00% # Request fanout histogram
system.tol2bus.snoop_fanout::6                      0      0.00%      0.00% # Request fanout histogram
system.tol2bus.snoop_fanout::7                 320183     99.40%     99.40% # Request fanout histogram
system.tol2bus.snoop_fanout::8                   1926      0.60%    100.00% # Request fanout histogram
system.tol2bus.snoop_fanout::overflows              0      0.00%    100.00% # Request fanout histogram
system.tol2bus.snoop_fanout::min_value              7                       # Request fanout histogram
system.tol2bus.snoop_fanout::max_value              8                       # Request fanout histogram
system.tol2bus.snoop_fanout::total             322109                       # Request fanout histogram
system.tol2bus.reqLayer0.occupancy          237517471                       # Layer occupancy (ticks)
system.tol2bus.reqLayer0.utilization              2.2                       # Layer utilization (%)
system.tol2bus.respLayer0.occupancy          13891138                       # Layer occupancy (ticks)
system.tol2bus.respLayer0.utilization             0.1                       # Layer utilization (%)
system.tol2bus.respLayer1.occupancy          56505582                       # Layer occupancy (ticks)
system.tol2bus.respLayer1.utilization             0.5                       # Layer utilization (%)
system.tol2bus.respLayer2.occupancy          40822907                       # Layer occupancy (ticks)
system.tol2bus.respLayer2.utilization             0.4                       # Layer utilization (%)
system.tol2bus.respLayer3.occupancy          35826289                       # Layer occupancy (ticks)
system.tol2bus.respLayer3.utilization             0.3                       # Layer utilization (%)
system.tol2bus.respLayer4.occupancy          51909991                       # Layer occupancy (ticks)
system.tol2bus.respLayer4.utilization             0.5                       # Layer utilization (%)
system.tol2bus.respLayer5.occupancy          97857452                       # Layer occupancy (ticks)
system.tol2bus.respLayer5.utilization             0.9                       # Layer utilization (%)
system.tol2bus.respLayer6.occupancy          36294474                       # Layer occupancy (ticks)
system.tol2bus.respLayer6.utilization             0.3                       # Layer utilization (%)
system.tol2bus.respLayer7.occupancy          33750758                       # Layer occupancy (ticks)
system.tol2bus.respLayer7.utilization             0.3                       # Layer utilization (%)
system.tsunami.ethernet.descDMAReads                0                       # Number of descriptors the device read w/ DMA
system.tsunami.ethernet.descDMAWrites               0                       # Number of descriptors the device wrote w/ DMA
system.tsunami.ethernet.descDmaReadBytes            0                       # number of descriptor bytes read w/ DMA
system.tsunami.ethernet.descDmaWriteBytes            0                       # number of descriptor bytes write w/ DMA
system.tsunami.ethernet.postedSwi                   0                       # number of software interrupts posted to CPU
system.tsunami.ethernet.coalescedSwi              nan                       # average number of Swi's coalesced into each post
system.tsunami.ethernet.totalSwi                    0                       # total number of Swi written to ISR
system.tsunami.ethernet.postedRxIdle                0                       # number of rxIdle interrupts posted to CPU
system.tsunami.ethernet.coalescedRxIdle           nan                       # average number of RxIdle's coalesced into each post
system.tsunami.ethernet.totalRxIdle                 0                       # total number of RxIdle written to ISR
system.tsunami.ethernet.postedRxOk                  0                       # number of RxOk interrupts posted to CPU
system.tsunami.ethernet.coalescedRxOk             nan                       # average number of RxOk's coalesced into each post
system.tsunami.ethernet.totalRxOk                   0                       # total number of RxOk written to ISR
system.tsunami.ethernet.postedRxDesc                0                       # number of RxDesc interrupts posted to CPU
system.tsunami.ethernet.coalescedRxDesc           nan                       # average number of RxDesc's coalesced into each post
system.tsunami.ethernet.totalRxDesc                 0                       # total number of RxDesc written to ISR
system.tsunami.ethernet.postedTxOk                  0                       # number of TxOk interrupts posted to CPU
system.tsunami.ethernet.coalescedTxOk             nan                       # average number of TxOk's coalesced into each post
system.tsunami.ethernet.totalTxOk                   0                       # total number of TxOk written to ISR
system.tsunami.ethernet.postedTxIdle                0                       # number of TxIdle interrupts posted to CPU
system.tsunami.ethernet.coalescedTxIdle           nan                       # average number of TxIdle's coalesced into each post
system.tsunami.ethernet.totalTxIdle                 0                       # total number of TxIdle written to ISR
system.tsunami.ethernet.postedTxDesc                0                       # number of TxDesc interrupts posted to CPU
system.tsunami.ethernet.coalescedTxDesc           nan                       # average number of TxDesc's coalesced into each post
system.tsunami.ethernet.totalTxDesc                 0                       # total number of TxDesc written to ISR
system.tsunami.ethernet.postedRxOrn                 0                       # number of RxOrn posted to CPU
system.tsunami.ethernet.coalescedRxOrn            nan                       # average number of RxOrn's coalesced into each post
system.tsunami.ethernet.totalRxOrn                  0                       # total number of RxOrn written to ISR
system.tsunami.ethernet.coalescedTotal            nan                       # average number of interrupts coalesced into each post
system.tsunami.ethernet.postedInterrupts            0                       # number of posts to CPU
system.tsunami.ethernet.droppedPackets              0                       # number of packets dropped
system.switch_cpus0.kern.inst.arm                   0                       # number of arm instructions executed
system.switch_cpus0.kern.inst.quiesce               0                       # number of quiesce instructions executed
system.switch_cpus0.kern.inst.hwrei                 0                       # number of hwrei instructions executed
system.switch_cpus0.kern.mode_switch::kernel            0                       # number of protection mode switches
system.switch_cpus0.kern.mode_switch::user            0                       # number of protection mode switches
system.switch_cpus0.kern.mode_switch::idle            0                       # number of protection mode switches
system.switch_cpus0.kern.mode_good::kernel            0                      
system.switch_cpus0.kern.mode_good::user            0                      
system.switch_cpus0.kern.mode_good::idle            0                      
system.switch_cpus0.kern.mode_switch_good::kernel          nan                       # fraction of useful protection mode switches
system.switch_cpus0.kern.mode_switch_good::user          nan                       # fraction of useful protection mode switches
system.switch_cpus0.kern.mode_switch_good::idle          nan                       # fraction of useful protection mode switches
system.switch_cpus0.kern.mode_switch_good::total          nan                       # fraction of useful protection mode switches
system.switch_cpus0.kern.mode_ticks::kernel            0                       # number of ticks spent at the given mode
system.switch_cpus0.kern.mode_ticks::user            0                       # number of ticks spent at the given mode
system.switch_cpus0.kern.mode_ticks::idle            0                       # number of ticks spent at the given mode
system.switch_cpus0.kern.swap_context               0                       # number of times the context was actually changed
system.switch_cpus1.kern.inst.arm                   0                       # number of arm instructions executed
system.switch_cpus1.kern.inst.quiesce               0                       # number of quiesce instructions executed
system.switch_cpus1.kern.inst.hwrei                 0                       # number of hwrei instructions executed
system.switch_cpus1.kern.mode_switch::kernel            0                       # number of protection mode switches
system.switch_cpus1.kern.mode_switch::user            0                       # number of protection mode switches
system.switch_cpus1.kern.mode_switch::idle            0                       # number of protection mode switches
system.switch_cpus1.kern.mode_good::kernel            0                      
system.switch_cpus1.kern.mode_good::user            0                      
system.switch_cpus1.kern.mode_good::idle            0                      
system.switch_cpus1.kern.mode_switch_good::kernel          nan                       # fraction of useful protection mode switches
system.switch_cpus1.kern.mode_switch_good::user          nan                       # fraction of useful protection mode switches
system.switch_cpus1.kern.mode_switch_good::idle          nan                       # fraction of useful protection mode switches
system.switch_cpus1.kern.mode_switch_good::total          nan                       # fraction of useful protection mode switches
system.switch_cpus1.kern.mode_ticks::kernel            0                       # number of ticks spent at the given mode
system.switch_cpus1.kern.mode_ticks::user            0                       # number of ticks spent at the given mode
system.switch_cpus1.kern.mode_ticks::idle            0                       # number of ticks spent at the given mode
system.switch_cpus1.kern.swap_context               0                       # number of times the context was actually changed
system.switch_cpus2.kern.inst.arm                   0                       # number of arm instructions executed
system.switch_cpus2.kern.inst.quiesce               0                       # number of quiesce instructions executed
system.switch_cpus2.kern.inst.hwrei                 0                       # number of hwrei instructions executed
system.switch_cpus2.kern.mode_switch::kernel            0                       # number of protection mode switches
system.switch_cpus2.kern.mode_switch::user            0                       # number of protection mode switches
system.switch_cpus2.kern.mode_switch::idle            0                       # number of protection mode switches
system.switch_cpus2.kern.mode_good::kernel            0                      
system.switch_cpus2.kern.mode_good::user            0                      
system.switch_cpus2.kern.mode_good::idle            0                      
system.switch_cpus2.kern.mode_switch_good::kernel          nan                       # fraction of useful protection mode switches
system.switch_cpus2.kern.mode_switch_good::user          nan                       # fraction of useful protection mode switches
system.switch_cpus2.kern.mode_switch_good::idle          nan                       # fraction of useful protection mode switches
system.switch_cpus2.kern.mode_switch_good::total          nan                       # fraction of useful protection mode switches
system.switch_cpus2.kern.mode_ticks::kernel            0                       # number of ticks spent at the given mode
system.switch_cpus2.kern.mode_ticks::user            0                       # number of ticks spent at the given mode
system.switch_cpus2.kern.mode_ticks::idle            0                       # number of ticks spent at the given mode
system.switch_cpus2.kern.swap_context               0                       # number of times the context was actually changed
system.switch_cpus3.kern.inst.arm                   0                       # number of arm instructions executed
system.switch_cpus3.kern.inst.quiesce               0                       # number of quiesce instructions executed
system.switch_cpus3.kern.inst.hwrei                 0                       # number of hwrei instructions executed
system.switch_cpus3.kern.mode_switch::kernel            0                       # number of protection mode switches
system.switch_cpus3.kern.mode_switch::user            0                       # number of protection mode switches
system.switch_cpus3.kern.mode_switch::idle            0                       # number of protection mode switches
system.switch_cpus3.kern.mode_good::kernel            0                      
system.switch_cpus3.kern.mode_good::user            0                      
system.switch_cpus3.kern.mode_good::idle            0                      
system.switch_cpus3.kern.mode_switch_good::kernel          nan                       # fraction of useful protection mode switches
system.switch_cpus3.kern.mode_switch_good::user          nan                       # fraction of useful protection mode switches
system.switch_cpus3.kern.mode_switch_good::idle          nan                       # fraction of useful protection mode switches
system.switch_cpus3.kern.mode_switch_good::total          nan                       # fraction of useful protection mode switches
system.switch_cpus3.kern.mode_ticks::kernel            0                       # number of ticks spent at the given mode
system.switch_cpus3.kern.mode_ticks::user            0                       # number of ticks spent at the given mode
system.switch_cpus3.kern.mode_ticks::idle            0                       # number of ticks spent at the given mode
system.switch_cpus3.kern.swap_context               0                       # number of times the context was actually changed

---------- End Simulation Statistics   ----------
