
---------- Begin Simulation Statistics ----------
sim_seconds                                  0.000786                       # Number of seconds simulated
sim_ticks                                   786177500                       # Number of ticks simulated
final_tick                               2255252906500                       # Number of ticks from beginning of simulation (restored from checkpoints and never reset)
sim_freq                                 1000000000000                       # Frequency of simulated ticks
host_inst_rate                               37675798                       # Simulator instruction rate (inst/s)
host_op_rate                                 37675684                       # Simulator op (including micro ops) rate (op/s)
host_tick_rate                              302126044                       # Simulator tick rate (ticks/s)
host_mem_usage                                 728852                       # Number of bytes of host memory used
host_seconds                                     2.60                       # Real time elapsed on the host
sim_insts                                    98037552                       # Number of instructions simulated
sim_ops                                      98037552                       # Number of ops (including micro ops) simulated
system.voltage_domain.voltage                       1                       # Voltage in Volts
system.clk_domain.clock                          1000                       # Clock period in ticks
system.mem_ctrls.bytes_read::switch_cpus.inst       314368                       # Number of bytes read from this memory
system.mem_ctrls.bytes_read::switch_cpus.data       178496                       # Number of bytes read from this memory
system.mem_ctrls.bytes_read::total             492864                       # Number of bytes read from this memory
system.mem_ctrls.bytes_inst_read::switch_cpus.inst       314368                       # Number of instructions bytes read from this memory
system.mem_ctrls.bytes_inst_read::total        314368                       # Number of instructions bytes read from this memory
system.mem_ctrls.bytes_written::writebacks        62720                       # Number of bytes written to this memory
system.mem_ctrls.bytes_written::total           62720                       # Number of bytes written to this memory
system.mem_ctrls.num_reads::switch_cpus.inst         4912                       # Number of read requests responded to by this memory
system.mem_ctrls.num_reads::switch_cpus.data         2789                       # Number of read requests responded to by this memory
system.mem_ctrls.num_reads::total                7701                       # Number of read requests responded to by this memory
system.mem_ctrls.num_writes::writebacks           980                       # Number of write requests responded to by this memory
system.mem_ctrls.num_writes::total                980                       # Number of write requests responded to by this memory
system.mem_ctrls.bw_read::switch_cpus.inst    399868986                       # Total read bandwidth from this memory (bytes/s)
system.mem_ctrls.bw_read::switch_cpus.data    227042875                       # Total read bandwidth from this memory (bytes/s)
system.mem_ctrls.bw_read::total             626911862                       # Total read bandwidth from this memory (bytes/s)
system.mem_ctrls.bw_inst_read::switch_cpus.inst    399868986                       # Instruction read bandwidth from this memory (bytes/s)
system.mem_ctrls.bw_inst_read::total        399868986                       # Instruction read bandwidth from this memory (bytes/s)
system.mem_ctrls.bw_write::writebacks        79778422                       # Write bandwidth from this memory (bytes/s)
system.mem_ctrls.bw_write::total             79778422                       # Write bandwidth from this memory (bytes/s)
system.mem_ctrls.bw_total::writebacks        79778422                       # Total bandwidth to/from this memory (bytes/s)
system.mem_ctrls.bw_total::switch_cpus.inst    399868986                       # Total bandwidth to/from this memory (bytes/s)
system.mem_ctrls.bw_total::switch_cpus.data    227042875                       # Total bandwidth to/from this memory (bytes/s)
system.mem_ctrls.bw_total::total            706690283                       # Total bandwidth to/from this memory (bytes/s)
system.mem_ctrls.readReqs                        7702                       # Number of read requests accepted
system.mem_ctrls.writeReqs                        980                       # Number of write requests accepted
system.mem_ctrls.readBursts                      7702                       # Number of DRAM read bursts, including those serviced by the write queue
system.mem_ctrls.writeBursts                      980                       # Number of DRAM write bursts, including those merged in the write queue
system.mem_ctrls.bytesReadDRAM                 490048                       # Total number of bytes read from DRAM
system.mem_ctrls.bytesReadWrQ                    2880                       # Total number of bytes read from write queue
system.mem_ctrls.bytesWritten                   61056                       # Total number of bytes written to DRAM
system.mem_ctrls.bytesReadSys                  492928                       # Total read bytes from the system interface side
system.mem_ctrls.bytesWrittenSys                62720                       # Total written bytes from the system interface side
system.mem_ctrls.servicedByWrQ                     45                       # Number of DRAM read bursts serviced by the write queue
system.mem_ctrls.mergedWrBursts                     1                       # Number of DRAM write bursts merged with an existing one
system.mem_ctrls.neitherReadNorWriteReqs            0                       # Number of requests that are neither read nor write
system.mem_ctrls.perBankRdBursts::0               849                       # Per bank write bursts
system.mem_ctrls.perBankRdBursts::1               362                       # Per bank write bursts
system.mem_ctrls.perBankRdBursts::2               389                       # Per bank write bursts
system.mem_ctrls.perBankRdBursts::3               268                       # Per bank write bursts
system.mem_ctrls.perBankRdBursts::4               335                       # Per bank write bursts
system.mem_ctrls.perBankRdBursts::5               379                       # Per bank write bursts
system.mem_ctrls.perBankRdBursts::6               358                       # Per bank write bursts
system.mem_ctrls.perBankRdBursts::7               461                       # Per bank write bursts
system.mem_ctrls.perBankRdBursts::8               671                       # Per bank write bursts
system.mem_ctrls.perBankRdBursts::9               438                       # Per bank write bursts
system.mem_ctrls.perBankRdBursts::10              544                       # Per bank write bursts
system.mem_ctrls.perBankRdBursts::11              650                       # Per bank write bursts
system.mem_ctrls.perBankRdBursts::12              611                       # Per bank write bursts
system.mem_ctrls.perBankRdBursts::13              747                       # Per bank write bursts
system.mem_ctrls.perBankRdBursts::14              275                       # Per bank write bursts
system.mem_ctrls.perBankRdBursts::15              320                       # Per bank write bursts
system.mem_ctrls.perBankWrBursts::0               143                       # Per bank write bursts
system.mem_ctrls.perBankWrBursts::1                46                       # Per bank write bursts
system.mem_ctrls.perBankWrBursts::2                30                       # Per bank write bursts
system.mem_ctrls.perBankWrBursts::3                52                       # Per bank write bursts
system.mem_ctrls.perBankWrBursts::4                81                       # Per bank write bursts
system.mem_ctrls.perBankWrBursts::5                79                       # Per bank write bursts
system.mem_ctrls.perBankWrBursts::6                96                       # Per bank write bursts
system.mem_ctrls.perBankWrBursts::7                35                       # Per bank write bursts
system.mem_ctrls.perBankWrBursts::8                50                       # Per bank write bursts
system.mem_ctrls.perBankWrBursts::9                32                       # Per bank write bursts
system.mem_ctrls.perBankWrBursts::10               21                       # Per bank write bursts
system.mem_ctrls.perBankWrBursts::11               83                       # Per bank write bursts
system.mem_ctrls.perBankWrBursts::12               45                       # Per bank write bursts
system.mem_ctrls.perBankWrBursts::13               77                       # Per bank write bursts
system.mem_ctrls.perBankWrBursts::14               49                       # Per bank write bursts
system.mem_ctrls.perBankWrBursts::15               35                       # Per bank write bursts
system.mem_ctrls.numRdRetry                         0                       # Number of times read queue was full causing retry
system.mem_ctrls.numWrRetry                         0                       # Number of times write queue was full causing retry
system.mem_ctrls.totGap                     786133500                       # Total gap between requests
system.mem_ctrls.readPktSize::0                     0                       # Read request sizes (log2)
system.mem_ctrls.readPktSize::1                     0                       # Read request sizes (log2)
system.mem_ctrls.readPktSize::2                     0                       # Read request sizes (log2)
system.mem_ctrls.readPktSize::3                     0                       # Read request sizes (log2)
system.mem_ctrls.readPktSize::4                     0                       # Read request sizes (log2)
system.mem_ctrls.readPktSize::5                     0                       # Read request sizes (log2)
system.mem_ctrls.readPktSize::6                  7702                       # Read request sizes (log2)
system.mem_ctrls.writePktSize::0                    0                       # Write request sizes (log2)
system.mem_ctrls.writePktSize::1                    0                       # Write request sizes (log2)
system.mem_ctrls.writePktSize::2                    0                       # Write request sizes (log2)
system.mem_ctrls.writePktSize::3                    0                       # Write request sizes (log2)
system.mem_ctrls.writePktSize::4                    0                       # Write request sizes (log2)
system.mem_ctrls.writePktSize::5                    0                       # Write request sizes (log2)
system.mem_ctrls.writePktSize::6                  980                       # Write request sizes (log2)
system.mem_ctrls.rdQLenPdf::0                    5427                       # What read queue length does an incoming req see
system.mem_ctrls.rdQLenPdf::1                    1737                       # What read queue length does an incoming req see
system.mem_ctrls.rdQLenPdf::2                     384                       # What read queue length does an incoming req see
system.mem_ctrls.rdQLenPdf::3                     103                       # What read queue length does an incoming req see
system.mem_ctrls.rdQLenPdf::4                       6                       # What read queue length does an incoming req see
system.mem_ctrls.rdQLenPdf::5                       0                       # What read queue length does an incoming req see
system.mem_ctrls.rdQLenPdf::6                       0                       # What read queue length does an incoming req see
system.mem_ctrls.rdQLenPdf::7                       0                       # What read queue length does an incoming req see
system.mem_ctrls.rdQLenPdf::8                       0                       # What read queue length does an incoming req see
system.mem_ctrls.rdQLenPdf::9                       0                       # What read queue length does an incoming req see
system.mem_ctrls.rdQLenPdf::10                      0                       # What read queue length does an incoming req see
system.mem_ctrls.rdQLenPdf::11                      0                       # What read queue length does an incoming req see
system.mem_ctrls.rdQLenPdf::12                      0                       # What read queue length does an incoming req see
system.mem_ctrls.rdQLenPdf::13                      0                       # What read queue length does an incoming req see
system.mem_ctrls.rdQLenPdf::14                      0                       # What read queue length does an incoming req see
system.mem_ctrls.rdQLenPdf::15                      0                       # What read queue length does an incoming req see
system.mem_ctrls.rdQLenPdf::16                      0                       # What read queue length does an incoming req see
system.mem_ctrls.rdQLenPdf::17                      0                       # What read queue length does an incoming req see
system.mem_ctrls.rdQLenPdf::18                      0                       # What read queue length does an incoming req see
system.mem_ctrls.rdQLenPdf::19                      0                       # What read queue length does an incoming req see
system.mem_ctrls.rdQLenPdf::20                      0                       # What read queue length does an incoming req see
system.mem_ctrls.rdQLenPdf::21                      0                       # What read queue length does an incoming req see
system.mem_ctrls.rdQLenPdf::22                      0                       # What read queue length does an incoming req see
system.mem_ctrls.rdQLenPdf::23                      0                       # What read queue length does an incoming req see
system.mem_ctrls.rdQLenPdf::24                      0                       # What read queue length does an incoming req see
system.mem_ctrls.rdQLenPdf::25                      0                       # What read queue length does an incoming req see
system.mem_ctrls.rdQLenPdf::26                      0                       # What read queue length does an incoming req see
system.mem_ctrls.rdQLenPdf::27                      0                       # What read queue length does an incoming req see
system.mem_ctrls.rdQLenPdf::28                      0                       # What read queue length does an incoming req see
system.mem_ctrls.rdQLenPdf::29                      0                       # What read queue length does an incoming req see
system.mem_ctrls.rdQLenPdf::30                      0                       # What read queue length does an incoming req see
system.mem_ctrls.rdQLenPdf::31                      0                       # What read queue length does an incoming req see
system.mem_ctrls.wrQLenPdf::0                       1                       # What write queue length does an incoming req see
system.mem_ctrls.wrQLenPdf::1                       1                       # What write queue length does an incoming req see
system.mem_ctrls.wrQLenPdf::2                       1                       # What write queue length does an incoming req see
system.mem_ctrls.wrQLenPdf::3                       1                       # What write queue length does an incoming req see
system.mem_ctrls.wrQLenPdf::4                       1                       # What write queue length does an incoming req see
system.mem_ctrls.wrQLenPdf::5                       1                       # What write queue length does an incoming req see
system.mem_ctrls.wrQLenPdf::6                       1                       # What write queue length does an incoming req see
system.mem_ctrls.wrQLenPdf::7                       1                       # What write queue length does an incoming req see
system.mem_ctrls.wrQLenPdf::8                       1                       # What write queue length does an incoming req see
system.mem_ctrls.wrQLenPdf::9                       1                       # What write queue length does an incoming req see
system.mem_ctrls.wrQLenPdf::10                      1                       # What write queue length does an incoming req see
system.mem_ctrls.wrQLenPdf::11                      1                       # What write queue length does an incoming req see
system.mem_ctrls.wrQLenPdf::12                      1                       # What write queue length does an incoming req see
system.mem_ctrls.wrQLenPdf::13                      1                       # What write queue length does an incoming req see
system.mem_ctrls.wrQLenPdf::14                      1                       # What write queue length does an incoming req see
system.mem_ctrls.wrQLenPdf::15                     18                       # What write queue length does an incoming req see
system.mem_ctrls.wrQLenPdf::16                     18                       # What write queue length does an incoming req see
system.mem_ctrls.wrQLenPdf::17                     50                       # What write queue length does an incoming req see
system.mem_ctrls.wrQLenPdf::18                     58                       # What write queue length does an incoming req see
system.mem_ctrls.wrQLenPdf::19                     58                       # What write queue length does an incoming req see
system.mem_ctrls.wrQLenPdf::20                     58                       # What write queue length does an incoming req see
system.mem_ctrls.wrQLenPdf::21                     60                       # What write queue length does an incoming req see
system.mem_ctrls.wrQLenPdf::22                     59                       # What write queue length does an incoming req see
system.mem_ctrls.wrQLenPdf::23                     59                       # What write queue length does an incoming req see
system.mem_ctrls.wrQLenPdf::24                     59                       # What write queue length does an incoming req see
system.mem_ctrls.wrQLenPdf::25                     58                       # What write queue length does an incoming req see
system.mem_ctrls.wrQLenPdf::26                     58                       # What write queue length does an incoming req see
system.mem_ctrls.wrQLenPdf::27                     60                       # What write queue length does an incoming req see
system.mem_ctrls.wrQLenPdf::28                     60                       # What write queue length does an incoming req see
system.mem_ctrls.wrQLenPdf::29                     58                       # What write queue length does an incoming req see
system.mem_ctrls.wrQLenPdf::30                     58                       # What write queue length does an incoming req see
system.mem_ctrls.wrQLenPdf::31                     58                       # What write queue length does an incoming req see
system.mem_ctrls.wrQLenPdf::32                     57                       # What write queue length does an incoming req see
system.mem_ctrls.wrQLenPdf::33                      0                       # What write queue length does an incoming req see
system.mem_ctrls.wrQLenPdf::34                      0                       # What write queue length does an incoming req see
system.mem_ctrls.wrQLenPdf::35                      0                       # What write queue length does an incoming req see
system.mem_ctrls.wrQLenPdf::36                      0                       # What write queue length does an incoming req see
system.mem_ctrls.wrQLenPdf::37                      0                       # What write queue length does an incoming req see
system.mem_ctrls.wrQLenPdf::38                      0                       # What write queue length does an incoming req see
system.mem_ctrls.wrQLenPdf::39                      0                       # What write queue length does an incoming req see
system.mem_ctrls.wrQLenPdf::40                      0                       # What write queue length does an incoming req see
system.mem_ctrls.wrQLenPdf::41                      0                       # What write queue length does an incoming req see
system.mem_ctrls.wrQLenPdf::42                      0                       # What write queue length does an incoming req see
system.mem_ctrls.wrQLenPdf::43                      0                       # What write queue length does an incoming req see
system.mem_ctrls.wrQLenPdf::44                      0                       # What write queue length does an incoming req see
system.mem_ctrls.wrQLenPdf::45                      0                       # What write queue length does an incoming req see
system.mem_ctrls.wrQLenPdf::46                      0                       # What write queue length does an incoming req see
system.mem_ctrls.wrQLenPdf::47                      0                       # What write queue length does an incoming req see
system.mem_ctrls.wrQLenPdf::48                      0                       # What write queue length does an incoming req see
system.mem_ctrls.wrQLenPdf::49                      0                       # What write queue length does an incoming req see
system.mem_ctrls.wrQLenPdf::50                      0                       # What write queue length does an incoming req see
system.mem_ctrls.wrQLenPdf::51                      0                       # What write queue length does an incoming req see
system.mem_ctrls.wrQLenPdf::52                      0                       # What write queue length does an incoming req see
system.mem_ctrls.wrQLenPdf::53                      0                       # What write queue length does an incoming req see
system.mem_ctrls.wrQLenPdf::54                      0                       # What write queue length does an incoming req see
system.mem_ctrls.wrQLenPdf::55                      0                       # What write queue length does an incoming req see
system.mem_ctrls.wrQLenPdf::56                      0                       # What write queue length does an incoming req see
system.mem_ctrls.wrQLenPdf::57                      0                       # What write queue length does an incoming req see
system.mem_ctrls.wrQLenPdf::58                      0                       # What write queue length does an incoming req see
system.mem_ctrls.wrQLenPdf::59                      0                       # What write queue length does an incoming req see
system.mem_ctrls.wrQLenPdf::60                      0                       # What write queue length does an incoming req see
system.mem_ctrls.wrQLenPdf::61                      0                       # What write queue length does an incoming req see
system.mem_ctrls.wrQLenPdf::62                      0                       # What write queue length does an incoming req see
system.mem_ctrls.wrQLenPdf::63                      0                       # What write queue length does an incoming req see
system.mem_ctrls.bytesPerActivate::samples         2939                       # Bytes accessed per row activation
system.mem_ctrls.bytesPerActivate::mean    186.751956                       # Bytes accessed per row activation
system.mem_ctrls.bytesPerActivate::gmean   125.917258                       # Bytes accessed per row activation
system.mem_ctrls.bytesPerActivate::stdev   211.504808                       # Bytes accessed per row activation
system.mem_ctrls.bytesPerActivate::0-127         1432     48.72%     48.72% # Bytes accessed per row activation
system.mem_ctrls.bytesPerActivate::128-255          838     28.51%     77.24% # Bytes accessed per row activation
system.mem_ctrls.bytesPerActivate::256-383          286      9.73%     86.97% # Bytes accessed per row activation
system.mem_ctrls.bytesPerActivate::384-511          128      4.36%     91.32% # Bytes accessed per row activation
system.mem_ctrls.bytesPerActivate::512-639           79      2.69%     94.01% # Bytes accessed per row activation
system.mem_ctrls.bytesPerActivate::640-767           44      1.50%     95.51% # Bytes accessed per row activation
system.mem_ctrls.bytesPerActivate::768-895           32      1.09%     96.60% # Bytes accessed per row activation
system.mem_ctrls.bytesPerActivate::896-1023           24      0.82%     97.41% # Bytes accessed per row activation
system.mem_ctrls.bytesPerActivate::1024-1151           76      2.59%    100.00% # Bytes accessed per row activation
system.mem_ctrls.bytesPerActivate::total         2939                       # Bytes accessed per row activation
system.mem_ctrls.rdPerTurnAround::samples           57                       # Reads before turning the bus around for writes
system.mem_ctrls.rdPerTurnAround::mean     133.403509                       # Reads before turning the bus around for writes
system.mem_ctrls.rdPerTurnAround::gmean    118.700768                       # Reads before turning the bus around for writes
system.mem_ctrls.rdPerTurnAround::stdev     62.342905                       # Reads before turning the bus around for writes
system.mem_ctrls.rdPerTurnAround::16-31             1      1.75%      1.75% # Reads before turning the bus around for writes
system.mem_ctrls.rdPerTurnAround::32-47             5      8.77%     10.53% # Reads before turning the bus around for writes
system.mem_ctrls.rdPerTurnAround::48-63             1      1.75%     12.28% # Reads before turning the bus around for writes
system.mem_ctrls.rdPerTurnAround::64-79             3      5.26%     17.54% # Reads before turning the bus around for writes
system.mem_ctrls.rdPerTurnAround::80-95             4      7.02%     24.56% # Reads before turning the bus around for writes
system.mem_ctrls.rdPerTurnAround::96-111            4      7.02%     31.58% # Reads before turning the bus around for writes
system.mem_ctrls.rdPerTurnAround::112-127            9     15.79%     47.37% # Reads before turning the bus around for writes
system.mem_ctrls.rdPerTurnAround::128-143            7     12.28%     59.65% # Reads before turning the bus around for writes
system.mem_ctrls.rdPerTurnAround::144-159            7     12.28%     71.93% # Reads before turning the bus around for writes
system.mem_ctrls.rdPerTurnAround::160-175            7     12.28%     84.21% # Reads before turning the bus around for writes
system.mem_ctrls.rdPerTurnAround::176-191            4      7.02%     91.23% # Reads before turning the bus around for writes
system.mem_ctrls.rdPerTurnAround::208-223            1      1.75%     92.98% # Reads before turning the bus around for writes
system.mem_ctrls.rdPerTurnAround::240-255            1      1.75%     94.74% # Reads before turning the bus around for writes
system.mem_ctrls.rdPerTurnAround::272-287            2      3.51%     98.25% # Reads before turning the bus around for writes
system.mem_ctrls.rdPerTurnAround::336-351            1      1.75%    100.00% # Reads before turning the bus around for writes
system.mem_ctrls.rdPerTurnAround::total            57                       # Reads before turning the bus around for writes
system.mem_ctrls.wrPerTurnAround::samples           57                       # Writes before turning the bus around for reads
system.mem_ctrls.wrPerTurnAround::mean      16.736842                       # Writes before turning the bus around for reads
system.mem_ctrls.wrPerTurnAround::gmean     16.695916                       # Writes before turning the bus around for reads
system.mem_ctrls.wrPerTurnAround::stdev      1.217819                       # Writes before turning the bus around for reads
system.mem_ctrls.wrPerTurnAround::16               40     70.18%     70.18% # Writes before turning the bus around for reads
system.mem_ctrls.wrPerTurnAround::18               11     19.30%     89.47% # Writes before turning the bus around for reads
system.mem_ctrls.wrPerTurnAround::19                5      8.77%     98.25% # Writes before turning the bus around for reads
system.mem_ctrls.wrPerTurnAround::21                1      1.75%    100.00% # Writes before turning the bus around for reads
system.mem_ctrls.wrPerTurnAround::total            57                       # Writes before turning the bus around for reads
system.mem_ctrls.totQLat                     94088250                       # Total ticks spent queuing
system.mem_ctrls.totMemAccLat               237657000                       # Total ticks spent from burst creation until serviced by the DRAM
system.mem_ctrls.totBusLat                   38285000                       # Total ticks spent in databus transfers
system.mem_ctrls.avgQLat                     12287.87                       # Average queueing delay per DRAM burst
system.mem_ctrls.avgBusLat                    5000.00                       # Average bus latency per DRAM burst
system.mem_ctrls.avgMemAccLat                31037.87                       # Average memory access latency per DRAM burst
system.mem_ctrls.avgRdBW                       623.33                       # Average DRAM read bandwidth in MiByte/s
system.mem_ctrls.avgWrBW                        77.66                       # Average achieved write bandwidth in MiByte/s
system.mem_ctrls.avgRdBWSys                    626.99                       # Average system read bandwidth in MiByte/s
system.mem_ctrls.avgWrBWSys                     79.78                       # Average system write bandwidth in MiByte/s
system.mem_ctrls.peakBW                      12800.00                       # Theoretical peak bandwidth in MiByte/s
system.mem_ctrls.busUtil                         5.48                       # Data bus utilization in percentage
system.mem_ctrls.busUtilRead                     4.87                       # Data bus utilization in percentage for reads
system.mem_ctrls.busUtilWrite                    0.61                       # Data bus utilization in percentage for writes
system.mem_ctrls.avgRdQLen                       1.30                       # Average read queue length when enqueuing
system.mem_ctrls.avgWrQLen                      24.40                       # Average write queue length when enqueuing
system.mem_ctrls.readRowHits                     5214                       # Number of row buffer hits during reads
system.mem_ctrls.writeRowHits                     449                       # Number of row buffer hits during writes
system.mem_ctrls.readRowHitRate                 68.09                       # Row buffer hit rate for reads
system.mem_ctrls.writeRowHitRate                45.86                       # Row buffer hit rate for writes
system.mem_ctrls.avgGap                      90547.51                       # Average gap between requests
system.mem_ctrls.pageHitRate                    65.57                       # Row buffer hit rate, read and write combined
system.mem_ctrls_0.actEnergy                  9790200                       # Energy for activate commands per rank (pJ)
system.mem_ctrls_0.preEnergy                  5341875                       # Energy for precharge commands per rank (pJ)
system.mem_ctrls_0.readEnergy                26434200                       # Energy for read commands per rank (pJ)
system.mem_ctrls_0.writeEnergy                3641760                       # Energy for write commands per rank (pJ)
system.mem_ctrls_0.refreshEnergy             50856000                       # Energy for refresh commands per rank (pJ)
system.mem_ctrls_0.actBackEnergy            497462085                       # Energy for active background per rank (pJ)
system.mem_ctrls_0.preBackEnergy             30952500                       # Energy for precharge background per rank (pJ)
system.mem_ctrls_0.totalEnergy              624478620                       # Total energy per rank (pJ)
system.mem_ctrls_0.averagePower            801.773875                       # Core power per rank (mW)
system.mem_ctrls_0.memoryStateTime::IDLE     52941500                       # Time in different power states
system.mem_ctrls_0.memoryStateTime::REF      26000000                       # Time in different power states
system.mem_ctrls_0.memoryStateTime::PRE_PDN            0                       # Time in different power states
system.mem_ctrls_0.memoryStateTime::ACT     704142000                       # Time in different power states
system.mem_ctrls_0.memoryStateTime::ACT_PDN            0                       # Time in different power states
system.mem_ctrls_1.actEnergy                 12421080                       # Energy for activate commands per rank (pJ)
system.mem_ctrls_1.preEnergy                  6777375                       # Energy for precharge commands per rank (pJ)
system.mem_ctrls_1.readEnergy                33001800                       # Energy for read commands per rank (pJ)
system.mem_ctrls_1.writeEnergy                2540160                       # Energy for write commands per rank (pJ)
system.mem_ctrls_1.refreshEnergy             50856000                       # Energy for refresh commands per rank (pJ)
system.mem_ctrls_1.actBackEnergy            492245730                       # Energy for active background per rank (pJ)
system.mem_ctrls_1.preBackEnergy             35536500                       # Energy for precharge background per rank (pJ)
system.mem_ctrls_1.totalEnergy              633378645                       # Total energy per rank (pJ)
system.mem_ctrls_1.averagePower            813.186343                       # Core power per rank (mW)
system.mem_ctrls_1.memoryStateTime::IDLE     56237750                       # Time in different power states
system.mem_ctrls_1.memoryStateTime::REF      26000000                       # Time in different power states
system.mem_ctrls_1.memoryStateTime::PRE_PDN            0                       # Time in different power states
system.mem_ctrls_1.memoryStateTime::ACT     696661000                       # Time in different power states
system.mem_ctrls_1.memoryStateTime::ACT_PDN            0                       # Time in different power states
system.cpu_voltage_domain.voltage                   1                       # Voltage in Volts
system.cpu_clk_domain.clock                       500                       # Clock period in ticks
system.cpu.dtb.fetch_hits                           0                       # ITB hits
system.cpu.dtb.fetch_misses                         0                       # ITB misses
system.cpu.dtb.fetch_acv                            0                       # ITB acv
system.cpu.dtb.fetch_accesses                       0                       # ITB accesses
system.cpu.dtb.read_hits                            0                       # DTB read hits
system.cpu.dtb.read_misses                          0                       # DTB read misses
system.cpu.dtb.read_acv                             0                       # DTB read access violations
system.cpu.dtb.read_accesses                        0                       # DTB read accesses
system.cpu.dtb.write_hits                           0                       # DTB write hits
system.cpu.dtb.write_misses                         0                       # DTB write misses
system.cpu.dtb.write_acv                            0                       # DTB write access violations
system.cpu.dtb.write_accesses                       0                       # DTB write accesses
system.cpu.dtb.data_hits                            0                       # DTB hits
system.cpu.dtb.data_misses                          0                       # DTB misses
system.cpu.dtb.data_acv                             0                       # DTB access violations
system.cpu.dtb.data_accesses                        0                       # DTB accesses
system.cpu.itb.fetch_hits                           0                       # ITB hits
system.cpu.itb.fetch_misses                         0                       # ITB misses
system.cpu.itb.fetch_acv                            0                       # ITB acv
system.cpu.itb.fetch_accesses                       0                       # ITB accesses
system.cpu.itb.read_hits                            0                       # DTB read hits
system.cpu.itb.read_misses                          0                       # DTB read misses
system.cpu.itb.read_acv                             0                       # DTB read access violations
system.cpu.itb.read_accesses                        0                       # DTB read accesses
system.cpu.itb.write_hits                           0                       # DTB write hits
system.cpu.itb.write_misses                         0                       # DTB write misses
system.cpu.itb.write_acv                            0                       # DTB write access violations
system.cpu.itb.write_accesses                       0                       # DTB write accesses
system.cpu.itb.data_hits                            0                       # DTB hits
system.cpu.itb.data_misses                          0                       # DTB misses
system.cpu.itb.data_acv                             0                       # DTB access violations
system.cpu.itb.data_accesses                        0                       # DTB accesses
system.cpu.numCycles                                0                       # number of cpu cycles simulated
system.cpu.numWorkItemsStarted                      0                       # number of work items this cpu started
system.cpu.numWorkItemsCompleted                    0                       # number of work items this cpu completed
system.cpu.committedInsts                           0                       # Number of instructions committed
system.cpu.committedOps                             0                       # Number of ops (including micro ops) committed
system.cpu.num_int_alu_accesses                     0                       # Number of integer alu accesses
system.cpu.num_fp_alu_accesses                      0                       # Number of float alu accesses
system.cpu.num_func_calls                           0                       # number of times a function call or return occured
system.cpu.num_conditional_control_insts            0                       # number of instructions that are conditional controls
system.cpu.num_int_insts                            0                       # number of integer instructions
system.cpu.num_fp_insts                             0                       # number of float instructions
system.cpu.num_int_register_reads                   0                       # number of times the integer registers were read
system.cpu.num_int_register_writes                  0                       # number of times the integer registers were written
system.cpu.num_fp_register_reads                    0                       # number of times the floating registers were read
system.cpu.num_fp_register_writes                   0                       # number of times the floating registers were written
system.cpu.num_mem_refs                             0                       # number of memory refs
system.cpu.num_load_insts                           0                       # Number of load instructions
system.cpu.num_store_insts                          0                       # Number of store instructions
system.cpu.num_idle_cycles                          0                       # Number of idle cycles
system.cpu.num_busy_cycles                          0                       # Number of busy cycles
system.cpu.not_idle_fraction                        1                       # Percentage of non-idle cycles
system.cpu.idle_fraction                            0                       # Percentage of idle cycles
system.cpu.op_class::No_OpClass                     0                       # Class of executed instruction
system.cpu.op_class::IntAlu                         0                       # Class of executed instruction
system.cpu.op_class::IntMult                        0                       # Class of executed instruction
system.cpu.op_class::IntDiv                         0                       # Class of executed instruction
system.cpu.op_class::FloatAdd                       0                       # Class of executed instruction
system.cpu.op_class::FloatCmp                       0                       # Class of executed instruction
system.cpu.op_class::FloatCvt                       0                       # Class of executed instruction
system.cpu.op_class::FloatMult                      0                       # Class of executed instruction
system.cpu.op_class::FloatDiv                       0                       # Class of executed instruction
system.cpu.op_class::FloatSqrt                      0                       # Class of executed instruction
system.cpu.op_class::SimdAdd                        0                       # Class of executed instruction
system.cpu.op_class::SimdAddAcc                     0                       # Class of executed instruction
system.cpu.op_class::SimdAlu                        0                       # Class of executed instruction
system.cpu.op_class::SimdCmp                        0                       # Class of executed instruction
system.cpu.op_class::SimdCvt                        0                       # Class of executed instruction
system.cpu.op_class::SimdMisc                       0                       # Class of executed instruction
system.cpu.op_class::SimdMult                       0                       # Class of executed instruction
system.cpu.op_class::SimdMultAcc                    0                       # Class of executed instruction
system.cpu.op_class::SimdShift                      0                       # Class of executed instruction
system.cpu.op_class::SimdShiftAcc                   0                       # Class of executed instruction
system.cpu.op_class::SimdSqrt                       0                       # Class of executed instruction
system.cpu.op_class::SimdFloatAdd                   0                       # Class of executed instruction
system.cpu.op_class::SimdFloatAlu                   0                       # Class of executed instruction
system.cpu.op_class::SimdFloatCmp                   0                       # Class of executed instruction
system.cpu.op_class::SimdFloatCvt                   0                       # Class of executed instruction
system.cpu.op_class::SimdFloatDiv                   0                       # Class of executed instruction
system.cpu.op_class::SimdFloatMisc                  0                       # Class of executed instruction
system.cpu.op_class::SimdFloatMult                  0                       # Class of executed instruction
system.cpu.op_class::SimdFloatMultAcc               0                       # Class of executed instruction
system.cpu.op_class::SimdFloatSqrt                  0                       # Class of executed instruction
system.cpu.op_class::MemRead                        0                       # Class of executed instruction
system.cpu.op_class::MemWrite                       0                       # Class of executed instruction
system.cpu.op_class::IprAccess                      0                       # Class of executed instruction
system.cpu.op_class::InstPrefetch                   0                       # Class of executed instruction
system.cpu.op_class::total                          0                       # Class of executed instruction
system.cpu.kern.inst.arm                            0                       # number of arm instructions executed
system.cpu.kern.inst.quiesce                        0                       # number of quiesce instructions executed
system.cpu.kern.inst.hwrei                       2785                       # number of hwrei instructions executed
system.cpu.kern.ipl_count::0                      635     49.15%     49.15% # number of times we switched to this ipl
system.cpu.kern.ipl_count::22                       1      0.08%     49.23% # number of times we switched to this ipl
system.cpu.kern.ipl_count::31                     656     50.77%    100.00% # number of times we switched to this ipl
system.cpu.kern.ipl_count::total                 1292                       # number of times we switched to this ipl
system.cpu.kern.ipl_good::0                       633     49.96%     49.96% # number of times we switched to this ipl from a different ipl
system.cpu.kern.ipl_good::22                        1      0.08%     50.04% # number of times we switched to this ipl from a different ipl
system.cpu.kern.ipl_good::31                      633     49.96%    100.00% # number of times we switched to this ipl from a different ipl
system.cpu.kern.ipl_good::total                  1267                       # number of times we switched to this ipl from a different ipl
system.cpu.kern.ipl_ticks::0                702699500     89.48%     89.48% # number of cycles we spent at this ipl
system.cpu.kern.ipl_ticks::22                 1277500      0.16%     89.64% # number of cycles we spent at this ipl
system.cpu.kern.ipl_ticks::31                81321000     10.36%    100.00% # number of cycles we spent at this ipl
system.cpu.kern.ipl_ticks::total            785298000                       # number of cycles we spent at this ipl
system.cpu.kern.ipl_used::0                  0.996850                       # fraction of swpipl calls that actually changed the ipl
system.cpu.kern.ipl_used::22                        1                       # fraction of swpipl calls that actually changed the ipl
system.cpu.kern.ipl_used::31                 0.964939                       # fraction of swpipl calls that actually changed the ipl
system.cpu.kern.ipl_used::total              0.980650                       # fraction of swpipl calls that actually changed the ipl
system.cpu.kern.syscall::2                          1      5.56%      5.56% # number of syscalls executed
system.cpu.kern.syscall::3                          2     11.11%     16.67% # number of syscalls executed
system.cpu.kern.syscall::6                          2     11.11%     27.78% # number of syscalls executed
system.cpu.kern.syscall::17                         1      5.56%     33.33% # number of syscalls executed
system.cpu.kern.syscall::19                         1      5.56%     38.89% # number of syscalls executed
system.cpu.kern.syscall::33                         1      5.56%     44.44% # number of syscalls executed
system.cpu.kern.syscall::45                         3     16.67%     61.11% # number of syscalls executed
system.cpu.kern.syscall::48                         1      5.56%     66.67% # number of syscalls executed
system.cpu.kern.syscall::59                         1      5.56%     72.22% # number of syscalls executed
system.cpu.kern.syscall::71                         4     22.22%     94.44% # number of syscalls executed
system.cpu.kern.syscall::74                         1      5.56%    100.00% # number of syscalls executed
system.cpu.kern.syscall::total                     18                       # number of syscalls executed
system.cpu.kern.callpal::swpctx                   118      8.10%      8.10% # number of callpals executed
system.cpu.kern.callpal::tbi                        6      0.41%      8.51% # number of callpals executed
system.cpu.kern.callpal::swpipl                  1107     75.98%     84.49% # number of callpals executed
system.cpu.kern.callpal::rdps                       3      0.21%     84.69% # number of callpals executed
system.cpu.kern.callpal::wrusp                      1      0.07%     84.76% # number of callpals executed
system.cpu.kern.callpal::rdusp                      1      0.07%     84.83% # number of callpals executed
system.cpu.kern.callpal::rti                      184     12.63%     97.46% # number of callpals executed
system.cpu.kern.callpal::callsys                   33      2.26%     99.73% # number of callpals executed
system.cpu.kern.callpal::imb                        4      0.27%    100.00% # number of callpals executed
system.cpu.kern.callpal::total                   1457                       # number of callpals executed
system.cpu.kern.mode_switch::kernel               302                       # number of protection mode switches
system.cpu.kern.mode_switch::user                 181                       # number of protection mode switches
system.cpu.kern.mode_switch::idle                   0                       # number of protection mode switches
system.cpu.kern.mode_good::kernel                 181                      
system.cpu.kern.mode_good::user                   181                      
system.cpu.kern.mode_good::idle                     0                      
system.cpu.kern.mode_switch_good::kernel     0.599338                       # fraction of useful protection mode switches
system.cpu.kern.mode_switch_good::user              1                       # fraction of useful protection mode switches
system.cpu.kern.mode_switch_good::idle            nan                       # fraction of useful protection mode switches
system.cpu.kern.mode_switch_good::total      0.749482                       # fraction of useful protection mode switches
system.cpu.kern.mode_ticks::kernel          542722500     69.11%     69.11% # number of ticks spent at the given mode
system.cpu.kern.mode_ticks::user            242568500     30.89%    100.00% # number of ticks spent at the given mode
system.cpu.kern.mode_ticks::idle                    0      0.00%    100.00% # number of ticks spent at the given mode
system.cpu.kern.swap_context                      118                       # number of times the context was actually changed
system.cpu.dcache.tags.replacements             18317                       # number of replacements
system.cpu.dcache.tags.tagsinuse                  512                       # Cycle average of tags in use
system.cpu.dcache.tags.total_refs              198673                       # Total number of references to valid blocks.
system.cpu.dcache.tags.sampled_refs             18317                       # Sample count of references to valid blocks.
system.cpu.dcache.tags.avg_refs             10.846372                       # Average number of references to valid blocks.
system.cpu.dcache.tags.warmup_cycle                 0                       # Cycle when the warmup percentage was hit.
system.cpu.dcache.tags.occ_blocks::cpu.data    28.367367                       # Average occupied blocks per requestor
system.cpu.dcache.tags.occ_blocks::switch_cpus.data   483.632633                       # Average occupied blocks per requestor
system.cpu.dcache.tags.occ_percent::cpu.data     0.055405                       # Average percentage of cache occupancy
system.cpu.dcache.tags.occ_percent::switch_cpus.data     0.944595                       # Average percentage of cache occupancy
system.cpu.dcache.tags.occ_percent::total            1                       # Average percentage of cache occupancy
system.cpu.dcache.tags.occ_task_id_blocks::1024          512                       # Occupied blocks per task id
system.cpu.dcache.tags.age_task_id_blocks_1024::0          431                       # Occupied blocks per task id
system.cpu.dcache.tags.age_task_id_blocks_1024::1           79                       # Occupied blocks per task id
system.cpu.dcache.tags.age_task_id_blocks_1024::2            2                       # Occupied blocks per task id
system.cpu.dcache.tags.occ_task_id_percent::1024            1                       # Percentage of cache occupancy per task id
system.cpu.dcache.tags.tag_accesses           1181029                       # Number of tag accesses
system.cpu.dcache.tags.data_accesses          1181029                       # Number of data accesses
system.cpu.dcache.ReadReq_hits::switch_cpus.data       132523                       # number of ReadReq hits
system.cpu.dcache.ReadReq_hits::total          132523                       # number of ReadReq hits
system.cpu.dcache.WriteReq_hits::switch_cpus.data        58803                       # number of WriteReq hits
system.cpu.dcache.WriteReq_hits::total          58803                       # number of WriteReq hits
system.cpu.dcache.LoadLockedReq_hits::switch_cpus.data         2236                       # number of LoadLockedReq hits
system.cpu.dcache.LoadLockedReq_hits::total         2236                       # number of LoadLockedReq hits
system.cpu.dcache.StoreCondReq_hits::switch_cpus.data         2378                       # number of StoreCondReq hits
system.cpu.dcache.StoreCondReq_hits::total         2378                       # number of StoreCondReq hits
system.cpu.dcache.demand_hits::switch_cpus.data       191326                       # number of demand (read+write) hits
system.cpu.dcache.demand_hits::total           191326                       # number of demand (read+write) hits
system.cpu.dcache.overall_hits::switch_cpus.data       191326                       # number of overall hits
system.cpu.dcache.overall_hits::total          191326                       # number of overall hits
system.cpu.dcache.ReadReq_misses::switch_cpus.data        26876                       # number of ReadReq misses
system.cpu.dcache.ReadReq_misses::total         26876                       # number of ReadReq misses
system.cpu.dcache.WriteReq_misses::switch_cpus.data        67469                       # number of WriteReq misses
system.cpu.dcache.WriteReq_misses::total        67469                       # number of WriteReq misses
system.cpu.dcache.LoadLockedReq_misses::switch_cpus.data          393                       # number of LoadLockedReq misses
system.cpu.dcache.LoadLockedReq_misses::total          393                       # number of LoadLockedReq misses
system.cpu.dcache.demand_misses::switch_cpus.data        94345                       # number of demand (read+write) misses
system.cpu.dcache.demand_misses::total          94345                       # number of demand (read+write) misses
system.cpu.dcache.overall_misses::switch_cpus.data        94345                       # number of overall misses
system.cpu.dcache.overall_misses::total         94345                       # number of overall misses
system.cpu.dcache.ReadReq_miss_latency::switch_cpus.data    750406998                       # number of ReadReq miss cycles
system.cpu.dcache.ReadReq_miss_latency::total    750406998                       # number of ReadReq miss cycles
system.cpu.dcache.WriteReq_miss_latency::switch_cpus.data   1066336398                       # number of WriteReq miss cycles
system.cpu.dcache.WriteReq_miss_latency::total   1066336398                       # number of WriteReq miss cycles
system.cpu.dcache.LoadLockedReq_miss_latency::switch_cpus.data     10296000                       # number of LoadLockedReq miss cycles
system.cpu.dcache.LoadLockedReq_miss_latency::total     10296000                       # number of LoadLockedReq miss cycles
system.cpu.dcache.demand_miss_latency::switch_cpus.data   1816743396                       # number of demand (read+write) miss cycles
system.cpu.dcache.demand_miss_latency::total   1816743396                       # number of demand (read+write) miss cycles
system.cpu.dcache.overall_miss_latency::switch_cpus.data   1816743396                       # number of overall miss cycles
system.cpu.dcache.overall_miss_latency::total   1816743396                       # number of overall miss cycles
system.cpu.dcache.ReadReq_accesses::switch_cpus.data       159399                       # number of ReadReq accesses(hits+misses)
system.cpu.dcache.ReadReq_accesses::total       159399                       # number of ReadReq accesses(hits+misses)
system.cpu.dcache.WriteReq_accesses::switch_cpus.data       126272                       # number of WriteReq accesses(hits+misses)
system.cpu.dcache.WriteReq_accesses::total       126272                       # number of WriteReq accesses(hits+misses)
system.cpu.dcache.LoadLockedReq_accesses::switch_cpus.data         2629                       # number of LoadLockedReq accesses(hits+misses)
system.cpu.dcache.LoadLockedReq_accesses::total         2629                       # number of LoadLockedReq accesses(hits+misses)
system.cpu.dcache.StoreCondReq_accesses::switch_cpus.data         2378                       # number of StoreCondReq accesses(hits+misses)
system.cpu.dcache.StoreCondReq_accesses::total         2378                       # number of StoreCondReq accesses(hits+misses)
system.cpu.dcache.demand_accesses::switch_cpus.data       285671                       # number of demand (read+write) accesses
system.cpu.dcache.demand_accesses::total       285671                       # number of demand (read+write) accesses
system.cpu.dcache.overall_accesses::switch_cpus.data       285671                       # number of overall (read+write) accesses
system.cpu.dcache.overall_accesses::total       285671                       # number of overall (read+write) accesses
system.cpu.dcache.ReadReq_miss_rate::switch_cpus.data     0.168608                       # miss rate for ReadReq accesses
system.cpu.dcache.ReadReq_miss_rate::total     0.168608                       # miss rate for ReadReq accesses
system.cpu.dcache.WriteReq_miss_rate::switch_cpus.data     0.534315                       # miss rate for WriteReq accesses
system.cpu.dcache.WriteReq_miss_rate::total     0.534315                       # miss rate for WriteReq accesses
system.cpu.dcache.LoadLockedReq_miss_rate::switch_cpus.data     0.149486                       # miss rate for LoadLockedReq accesses
system.cpu.dcache.LoadLockedReq_miss_rate::total     0.149486                       # miss rate for LoadLockedReq accesses
system.cpu.dcache.demand_miss_rate::switch_cpus.data     0.330258                       # miss rate for demand accesses
system.cpu.dcache.demand_miss_rate::total     0.330258                       # miss rate for demand accesses
system.cpu.dcache.overall_miss_rate::switch_cpus.data     0.330258                       # miss rate for overall accesses
system.cpu.dcache.overall_miss_rate::total     0.330258                       # miss rate for overall accesses
system.cpu.dcache.ReadReq_avg_miss_latency::switch_cpus.data 27921.081932                       # average ReadReq miss latency
system.cpu.dcache.ReadReq_avg_miss_latency::total 27921.081932                       # average ReadReq miss latency
system.cpu.dcache.WriteReq_avg_miss_latency::switch_cpus.data 15804.834783                       # average WriteReq miss latency
system.cpu.dcache.WriteReq_avg_miss_latency::total 15804.834783                       # average WriteReq miss latency
system.cpu.dcache.LoadLockedReq_avg_miss_latency::switch_cpus.data 26198.473282                       # average LoadLockedReq miss latency
system.cpu.dcache.LoadLockedReq_avg_miss_latency::total 26198.473282                       # average LoadLockedReq miss latency
system.cpu.dcache.demand_avg_miss_latency::switch_cpus.data 19256.382384                       # average overall miss latency
system.cpu.dcache.demand_avg_miss_latency::total 19256.382384                       # average overall miss latency
system.cpu.dcache.overall_avg_miss_latency::switch_cpus.data 19256.382384                       # average overall miss latency
system.cpu.dcache.overall_avg_miss_latency::total 19256.382384                       # average overall miss latency
system.cpu.dcache.blocked_cycles::no_mshrs        42932                       # number of cycles access was blocked
system.cpu.dcache.blocked_cycles::no_targets          106                       # number of cycles access was blocked
system.cpu.dcache.blocked::no_mshrs              4239                       # number of cycles access was blocked
system.cpu.dcache.blocked::no_targets               1                       # number of cycles access was blocked
system.cpu.dcache.avg_blocked_cycles::no_mshrs    10.127860                       # average number of cycles each access was blocked
system.cpu.dcache.avg_blocked_cycles::no_targets          106                       # average number of cycles each access was blocked
system.cpu.dcache.fast_writes                       0                       # number of fast writes performed
system.cpu.dcache.cache_copies                      0                       # number of cache copies performed
system.cpu.dcache.writebacks::writebacks        13152                       # number of writebacks
system.cpu.dcache.writebacks::total             13152                       # number of writebacks
system.cpu.dcache.ReadReq_mshr_hits::switch_cpus.data        17871                       # number of ReadReq MSHR hits
system.cpu.dcache.ReadReq_mshr_hits::total        17871                       # number of ReadReq MSHR hits
system.cpu.dcache.WriteReq_mshr_hits::switch_cpus.data        58371                       # number of WriteReq MSHR hits
system.cpu.dcache.WriteReq_mshr_hits::total        58371                       # number of WriteReq MSHR hits
system.cpu.dcache.LoadLockedReq_mshr_hits::switch_cpus.data          172                       # number of LoadLockedReq MSHR hits
system.cpu.dcache.LoadLockedReq_mshr_hits::total          172                       # number of LoadLockedReq MSHR hits
system.cpu.dcache.demand_mshr_hits::switch_cpus.data        76242                       # number of demand (read+write) MSHR hits
system.cpu.dcache.demand_mshr_hits::total        76242                       # number of demand (read+write) MSHR hits
system.cpu.dcache.overall_mshr_hits::switch_cpus.data        76242                       # number of overall MSHR hits
system.cpu.dcache.overall_mshr_hits::total        76242                       # number of overall MSHR hits
system.cpu.dcache.ReadReq_mshr_misses::switch_cpus.data         9005                       # number of ReadReq MSHR misses
system.cpu.dcache.ReadReq_mshr_misses::total         9005                       # number of ReadReq MSHR misses
system.cpu.dcache.WriteReq_mshr_misses::switch_cpus.data         9098                       # number of WriteReq MSHR misses
system.cpu.dcache.WriteReq_mshr_misses::total         9098                       # number of WriteReq MSHR misses
system.cpu.dcache.LoadLockedReq_mshr_misses::switch_cpus.data          221                       # number of LoadLockedReq MSHR misses
system.cpu.dcache.LoadLockedReq_mshr_misses::total          221                       # number of LoadLockedReq MSHR misses
system.cpu.dcache.demand_mshr_misses::switch_cpus.data        18103                       # number of demand (read+write) MSHR misses
system.cpu.dcache.demand_mshr_misses::total        18103                       # number of demand (read+write) MSHR misses
system.cpu.dcache.overall_mshr_misses::switch_cpus.data        18103                       # number of overall MSHR misses
system.cpu.dcache.overall_mshr_misses::total        18103                       # number of overall MSHR misses
system.cpu.dcache.WriteReq_mshr_uncacheable::switch_cpus.data            1                       # number of WriteReq MSHR uncacheable
system.cpu.dcache.WriteReq_mshr_uncacheable::total            1                       # number of WriteReq MSHR uncacheable
system.cpu.dcache.overall_mshr_uncacheable_misses::switch_cpus.data            1                       # number of overall MSHR uncacheable misses
system.cpu.dcache.overall_mshr_uncacheable_misses::total            1                       # number of overall MSHR uncacheable misses
system.cpu.dcache.ReadReq_mshr_miss_latency::switch_cpus.data    265209752                       # number of ReadReq MSHR miss cycles
system.cpu.dcache.ReadReq_mshr_miss_latency::total    265209752                       # number of ReadReq MSHR miss cycles
system.cpu.dcache.WriteReq_mshr_miss_latency::switch_cpus.data    146380073                       # number of WriteReq MSHR miss cycles
system.cpu.dcache.WriteReq_mshr_miss_latency::total    146380073                       # number of WriteReq MSHR miss cycles
system.cpu.dcache.LoadLockedReq_mshr_miss_latency::switch_cpus.data      5133250                       # number of LoadLockedReq MSHR miss cycles
system.cpu.dcache.LoadLockedReq_mshr_miss_latency::total      5133250                       # number of LoadLockedReq MSHR miss cycles
system.cpu.dcache.demand_mshr_miss_latency::switch_cpus.data    411589825                       # number of demand (read+write) MSHR miss cycles
system.cpu.dcache.demand_mshr_miss_latency::total    411589825                       # number of demand (read+write) MSHR miss cycles
system.cpu.dcache.overall_mshr_miss_latency::switch_cpus.data    411589825                       # number of overall MSHR miss cycles
system.cpu.dcache.overall_mshr_miss_latency::total    411589825                       # number of overall MSHR miss cycles
system.cpu.dcache.WriteReq_mshr_uncacheable_latency::switch_cpus.data       223500                       # number of WriteReq MSHR uncacheable cycles
system.cpu.dcache.WriteReq_mshr_uncacheable_latency::total       223500                       # number of WriteReq MSHR uncacheable cycles
system.cpu.dcache.overall_mshr_uncacheable_latency::switch_cpus.data       223500                       # number of overall MSHR uncacheable cycles
system.cpu.dcache.overall_mshr_uncacheable_latency::total       223500                       # number of overall MSHR uncacheable cycles
system.cpu.dcache.ReadReq_mshr_miss_rate::switch_cpus.data     0.056493                       # mshr miss rate for ReadReq accesses
system.cpu.dcache.ReadReq_mshr_miss_rate::total     0.056493                       # mshr miss rate for ReadReq accesses
system.cpu.dcache.WriteReq_mshr_miss_rate::switch_cpus.data     0.072051                       # mshr miss rate for WriteReq accesses
system.cpu.dcache.WriteReq_mshr_miss_rate::total     0.072051                       # mshr miss rate for WriteReq accesses
system.cpu.dcache.LoadLockedReq_mshr_miss_rate::switch_cpus.data     0.084062                       # mshr miss rate for LoadLockedReq accesses
system.cpu.dcache.LoadLockedReq_mshr_miss_rate::total     0.084062                       # mshr miss rate for LoadLockedReq accesses
system.cpu.dcache.demand_mshr_miss_rate::switch_cpus.data     0.063370                       # mshr miss rate for demand accesses
system.cpu.dcache.demand_mshr_miss_rate::total     0.063370                       # mshr miss rate for demand accesses
system.cpu.dcache.overall_mshr_miss_rate::switch_cpus.data     0.063370                       # mshr miss rate for overall accesses
system.cpu.dcache.overall_mshr_miss_rate::total     0.063370                       # mshr miss rate for overall accesses
system.cpu.dcache.ReadReq_avg_mshr_miss_latency::switch_cpus.data 29451.388340                       # average ReadReq mshr miss latency
system.cpu.dcache.ReadReq_avg_mshr_miss_latency::total 29451.388340                       # average ReadReq mshr miss latency
system.cpu.dcache.WriteReq_avg_mshr_miss_latency::switch_cpus.data 16089.258408                       # average WriteReq mshr miss latency
system.cpu.dcache.WriteReq_avg_mshr_miss_latency::total 16089.258408                       # average WriteReq mshr miss latency
system.cpu.dcache.LoadLockedReq_avg_mshr_miss_latency::switch_cpus.data 23227.375566                       # average LoadLockedReq mshr miss latency
system.cpu.dcache.LoadLockedReq_avg_mshr_miss_latency::total 23227.375566                       # average LoadLockedReq mshr miss latency
system.cpu.dcache.demand_avg_mshr_miss_latency::switch_cpus.data 22736.000939                       # average overall mshr miss latency
system.cpu.dcache.demand_avg_mshr_miss_latency::total 22736.000939                       # average overall mshr miss latency
system.cpu.dcache.overall_avg_mshr_miss_latency::switch_cpus.data 22736.000939                       # average overall mshr miss latency
system.cpu.dcache.overall_avg_mshr_miss_latency::total 22736.000939                       # average overall mshr miss latency
system.cpu.dcache.WriteReq_avg_mshr_uncacheable_latency::switch_cpus.data       223500                       # average WriteReq mshr uncacheable latency
system.cpu.dcache.WriteReq_avg_mshr_uncacheable_latency::total       223500                       # average WriteReq mshr uncacheable latency
system.cpu.dcache.overall_avg_mshr_uncacheable_latency::switch_cpus.data       223500                       # average overall mshr uncacheable latency
system.cpu.dcache.overall_avg_mshr_uncacheable_latency::total       223500                       # average overall mshr uncacheable latency
system.cpu.dcache.no_allocate_misses                0                       # Number of misses that were no-allocate
system.cpu.icache.tags.replacements             10527                       # number of replacements
system.cpu.icache.tags.tagsinuse           511.851223                       # Cycle average of tags in use
system.cpu.icache.tags.total_refs              360625                       # Total number of references to valid blocks.
system.cpu.icache.tags.sampled_refs             10527                       # Sample count of references to valid blocks.
system.cpu.icache.tags.avg_refs             34.257148                       # Average number of references to valid blocks.
system.cpu.icache.tags.warmup_cycle                 0                       # Cycle when the warmup percentage was hit.
system.cpu.icache.tags.occ_blocks::cpu.inst    25.058180                       # Average occupied blocks per requestor
system.cpu.icache.tags.occ_blocks::switch_cpus.inst   486.793044                       # Average occupied blocks per requestor
system.cpu.icache.tags.occ_percent::cpu.inst     0.048942                       # Average percentage of cache occupancy
system.cpu.icache.tags.occ_percent::switch_cpus.inst     0.950768                       # Average percentage of cache occupancy
system.cpu.icache.tags.occ_percent::total     0.999709                       # Average percentage of cache occupancy
system.cpu.icache.tags.occ_task_id_blocks::1024          511                       # Occupied blocks per task id
system.cpu.icache.tags.age_task_id_blocks_1024::0           68                       # Occupied blocks per task id
system.cpu.icache.tags.age_task_id_blocks_1024::1          101                       # Occupied blocks per task id
system.cpu.icache.tags.age_task_id_blocks_1024::2          342                       # Occupied blocks per task id
system.cpu.icache.tags.occ_task_id_percent::1024     0.998047                       # Percentage of cache occupancy per task id
system.cpu.icache.tags.tag_accesses            334910                       # Number of tag accesses
system.cpu.icache.tags.data_accesses           334910                       # Number of data accesses
system.cpu.icache.ReadReq_hits::switch_cpus.inst       149748                       # number of ReadReq hits
system.cpu.icache.ReadReq_hits::total          149748                       # number of ReadReq hits
system.cpu.icache.demand_hits::switch_cpus.inst       149748                       # number of demand (read+write) hits
system.cpu.icache.demand_hits::total           149748                       # number of demand (read+write) hits
system.cpu.icache.overall_hits::switch_cpus.inst       149748                       # number of overall hits
system.cpu.icache.overall_hits::total          149748                       # number of overall hits
system.cpu.icache.ReadReq_misses::switch_cpus.inst        12441                       # number of ReadReq misses
system.cpu.icache.ReadReq_misses::total         12441                       # number of ReadReq misses
system.cpu.icache.demand_misses::switch_cpus.inst        12441                       # number of demand (read+write) misses
system.cpu.icache.demand_misses::total          12441                       # number of demand (read+write) misses
system.cpu.icache.overall_misses::switch_cpus.inst        12441                       # number of overall misses
system.cpu.icache.overall_misses::total         12441                       # number of overall misses
system.cpu.icache.ReadReq_miss_latency::switch_cpus.inst    571050987                       # number of ReadReq miss cycles
system.cpu.icache.ReadReq_miss_latency::total    571050987                       # number of ReadReq miss cycles
system.cpu.icache.demand_miss_latency::switch_cpus.inst    571050987                       # number of demand (read+write) miss cycles
system.cpu.icache.demand_miss_latency::total    571050987                       # number of demand (read+write) miss cycles
system.cpu.icache.overall_miss_latency::switch_cpus.inst    571050987                       # number of overall miss cycles
system.cpu.icache.overall_miss_latency::total    571050987                       # number of overall miss cycles
system.cpu.icache.ReadReq_accesses::switch_cpus.inst       162189                       # number of ReadReq accesses(hits+misses)
system.cpu.icache.ReadReq_accesses::total       162189                       # number of ReadReq accesses(hits+misses)
system.cpu.icache.demand_accesses::switch_cpus.inst       162189                       # number of demand (read+write) accesses
system.cpu.icache.demand_accesses::total       162189                       # number of demand (read+write) accesses
system.cpu.icache.overall_accesses::switch_cpus.inst       162189                       # number of overall (read+write) accesses
system.cpu.icache.overall_accesses::total       162189                       # number of overall (read+write) accesses
system.cpu.icache.ReadReq_miss_rate::switch_cpus.inst     0.076707                       # miss rate for ReadReq accesses
system.cpu.icache.ReadReq_miss_rate::total     0.076707                       # miss rate for ReadReq accesses
system.cpu.icache.demand_miss_rate::switch_cpus.inst     0.076707                       # miss rate for demand accesses
system.cpu.icache.demand_miss_rate::total     0.076707                       # miss rate for demand accesses
system.cpu.icache.overall_miss_rate::switch_cpus.inst     0.076707                       # miss rate for overall accesses
system.cpu.icache.overall_miss_rate::total     0.076707                       # miss rate for overall accesses
system.cpu.icache.ReadReq_avg_miss_latency::switch_cpus.inst 45900.730408                       # average ReadReq miss latency
system.cpu.icache.ReadReq_avg_miss_latency::total 45900.730408                       # average ReadReq miss latency
system.cpu.icache.demand_avg_miss_latency::switch_cpus.inst 45900.730408                       # average overall miss latency
system.cpu.icache.demand_avg_miss_latency::total 45900.730408                       # average overall miss latency
system.cpu.icache.overall_avg_miss_latency::switch_cpus.inst 45900.730408                       # average overall miss latency
system.cpu.icache.overall_avg_miss_latency::total 45900.730408                       # average overall miss latency
system.cpu.icache.blocked_cycles::no_mshrs         2165                       # number of cycles access was blocked
system.cpu.icache.blocked_cycles::no_targets            0                       # number of cycles access was blocked
system.cpu.icache.blocked::no_mshrs                50                       # number of cycles access was blocked
system.cpu.icache.blocked::no_targets               0                       # number of cycles access was blocked
system.cpu.icache.avg_blocked_cycles::no_mshrs    43.300000                       # average number of cycles each access was blocked
system.cpu.icache.avg_blocked_cycles::no_targets          nan                       # average number of cycles each access was blocked
system.cpu.icache.fast_writes                       0                       # number of fast writes performed
system.cpu.icache.cache_copies                      0                       # number of cache copies performed
system.cpu.icache.ReadReq_mshr_hits::switch_cpus.inst         1907                       # number of ReadReq MSHR hits
system.cpu.icache.ReadReq_mshr_hits::total         1907                       # number of ReadReq MSHR hits
system.cpu.icache.demand_mshr_hits::switch_cpus.inst         1907                       # number of demand (read+write) MSHR hits
system.cpu.icache.demand_mshr_hits::total         1907                       # number of demand (read+write) MSHR hits
system.cpu.icache.overall_mshr_hits::switch_cpus.inst         1907                       # number of overall MSHR hits
system.cpu.icache.overall_mshr_hits::total         1907                       # number of overall MSHR hits
system.cpu.icache.ReadReq_mshr_misses::switch_cpus.inst        10534                       # number of ReadReq MSHR misses
system.cpu.icache.ReadReq_mshr_misses::total        10534                       # number of ReadReq MSHR misses
system.cpu.icache.demand_mshr_misses::switch_cpus.inst        10534                       # number of demand (read+write) MSHR misses
system.cpu.icache.demand_mshr_misses::total        10534                       # number of demand (read+write) MSHR misses
system.cpu.icache.overall_mshr_misses::switch_cpus.inst        10534                       # number of overall MSHR misses
system.cpu.icache.overall_mshr_misses::total        10534                       # number of overall MSHR misses
system.cpu.icache.ReadReq_mshr_miss_latency::switch_cpus.inst    462375757                       # number of ReadReq MSHR miss cycles
system.cpu.icache.ReadReq_mshr_miss_latency::total    462375757                       # number of ReadReq MSHR miss cycles
system.cpu.icache.demand_mshr_miss_latency::switch_cpus.inst    462375757                       # number of demand (read+write) MSHR miss cycles
system.cpu.icache.demand_mshr_miss_latency::total    462375757                       # number of demand (read+write) MSHR miss cycles
system.cpu.icache.overall_mshr_miss_latency::switch_cpus.inst    462375757                       # number of overall MSHR miss cycles
system.cpu.icache.overall_mshr_miss_latency::total    462375757                       # number of overall MSHR miss cycles
system.cpu.icache.ReadReq_mshr_miss_rate::switch_cpus.inst     0.064949                       # mshr miss rate for ReadReq accesses
system.cpu.icache.ReadReq_mshr_miss_rate::total     0.064949                       # mshr miss rate for ReadReq accesses
system.cpu.icache.demand_mshr_miss_rate::switch_cpus.inst     0.064949                       # mshr miss rate for demand accesses
system.cpu.icache.demand_mshr_miss_rate::total     0.064949                       # mshr miss rate for demand accesses
system.cpu.icache.overall_mshr_miss_rate::switch_cpus.inst     0.064949                       # mshr miss rate for overall accesses
system.cpu.icache.overall_mshr_miss_rate::total     0.064949                       # mshr miss rate for overall accesses
system.cpu.icache.ReadReq_avg_mshr_miss_latency::switch_cpus.inst 43893.654547                       # average ReadReq mshr miss latency
system.cpu.icache.ReadReq_avg_mshr_miss_latency::total 43893.654547                       # average ReadReq mshr miss latency
system.cpu.icache.demand_avg_mshr_miss_latency::switch_cpus.inst 43893.654547                       # average overall mshr miss latency
system.cpu.icache.demand_avg_mshr_miss_latency::total 43893.654547                       # average overall mshr miss latency
system.cpu.icache.overall_avg_mshr_miss_latency::switch_cpus.inst 43893.654547                       # average overall mshr miss latency
[...]
system.switch_cpus.iew.wb_producers           2666169                       # num instructions producing a value
system.switch_cpus.iew.wb_consumers           3450003                       # num instructions consuming a value
system.switch_cpus.iew.wb_penalized                 0                       # number of instrctions required to write to 'other' IQ
system.switch_cpus.iew.wb_rate               0.617921                       # insts written-back per cycle
system.switch_cpus.iew.wb_fanout             0.772802                       # average fanout of values written-back
system.switch_cpus.iew.wb_penalized_rate            0                       # fraction of instructions written-back that wrote to 'other' IQ
system.switch_cpus.commit.commitSquashedInsts       987556                       # The number of squashed insts skipped by commit
system.switch_cpus.commit.commitNonSpecStalls        69080                       # The number of times commit has been forced to stall to communicate backwards
system.switch_cpus.commit.branchMispredicts        43068                       # The number of times a branch was mispredicted
system.switch_cpus.commit.committed_per_cycle::samples      5997547                       # Number of insts commited each cycle
system.switch_cpus.commit.committed_per_cycle::mean     0.705208                       # Number of insts commited each cycle
system.switch_cpus.commit.committed_per_cycle::stdev     1.782936                       # Number of insts commited each cycle
system.switch_cpus.commit.committed_per_cycle::underflows            0      0.00%      0.00% # Number of insts commited each cycle
system.switch_cpus.commit.committed_per_cycle::0      4574252     76.27%     76.27% # Number of insts commited each cycle
system.switch_cpus.commit.committed_per_cycle::1       658164     10.97%     87.24% # Number of insts commited each cycle
system.switch_cpus.commit.committed_per_cycle::2       241285      4.02%     91.27% # Number of insts commited each cycle
system.switch_cpus.commit.committed_per_cycle::3        98644      1.64%     92.91% # Number of insts commited each cycle
system.switch_cpus.commit.committed_per_cycle::4        93097      1.55%     94.46% # Number of insts commited each cycle
system.switch_cpus.commit.committed_per_cycle::5        44238      0.74%     95.20% # Number of insts commited each cycle
system.switch_cpus.commit.committed_per_cycle::6        36444      0.61%     95.81% # Number of insts commited each cycle
system.switch_cpus.commit.committed_per_cycle::7        30773      0.51%     96.32% # Number of insts commited each cycle
system.switch_cpus.commit.committed_per_cycle::8       220650      3.68%    100.00% # Number of insts commited each cycle
system.switch_cpus.commit.committed_per_cycle::overflows            0      0.00%    100.00% # Number of insts commited each cycle
system.switch_cpus.commit.committed_per_cycle::min_value            0                       # Number of insts commited each cycle
system.switch_cpus.commit.committed_per_cycle::max_value            8                       # Number of insts commited each cycle
system.switch_cpus.commit.committed_per_cycle::total      5997547                       # Number of insts commited each cycle
system.switch_cpus.commit.committedInsts      4229519                       # Number of instructions committed
system.switch_cpus.commit.committedOps        4229519                       # Number of ops (including micro ops) committed
system.switch_cpus.commit.swp_count                 0                       # Number of s/w prefetches committed
system.switch_cpus.commit.refs                1167185                       # Number of memory references committed
system.switch_cpus.commit.loads                734246                       # Number of loads committed
system.switch_cpus.commit.membars               31756                       # Number of memory barriers committed
system.switch_cpus.commit.branches             586609                       # Number of branches committed
system.switch_cpus.commit.fp_insts              15645                       # Number of committed floating point instructions.
system.switch_cpus.commit.int_insts           4078597                       # Number of committed integer instructions.
system.switch_cpus.commit.function_calls        65572                       # Number of function calls committed.
system.switch_cpus.commit.op_class_0::No_OpClass        45168      1.07%      1.07% # Class of committed instruction
system.switch_cpus.commit.op_class_0::IntAlu      2875029     67.98%     69.04% # Class of committed instruction
system.switch_cpus.commit.op_class_0::IntMult        10926      0.26%     69.30% # Class of committed instruction
system.switch_cpus.commit.op_class_0::IntDiv            0      0.00%     69.30% # Class of committed instruction
system.switch_cpus.commit.op_class_0::FloatAdd         5042      0.12%     69.42% # Class of committed instruction
system.switch_cpus.commit.op_class_0::FloatCmp            1      0.00%     69.42% # Class of committed instruction
system.switch_cpus.commit.op_class_0::FloatCvt         2246      0.05%     69.47% # Class of committed instruction
system.switch_cpus.commit.op_class_0::FloatMult            1      0.00%     69.47% # Class of committed instruction
system.switch_cpus.commit.op_class_0::FloatDiv          993      0.02%     69.50% # Class of committed instruction
system.switch_cpus.commit.op_class_0::FloatSqrt            0      0.00%     69.50% # Class of committed instruction
system.switch_cpus.commit.op_class_0::SimdAdd            0      0.00%     69.50% # Class of committed instruction
system.switch_cpus.commit.op_class_0::SimdAddAcc            0      0.00%     69.50% # Class of committed instruction
system.switch_cpus.commit.op_class_0::SimdAlu            0      0.00%     69.50% # Class of committed instruction
system.switch_cpus.commit.op_class_0::SimdCmp            0      0.00%     69.50% # Class of committed instruction
system.switch_cpus.commit.op_class_0::SimdCvt            0      0.00%     69.50% # Class of committed instruction
system.switch_cpus.commit.op_class_0::SimdMisc            0      0.00%     69.50% # Class of committed instruction
system.switch_cpus.commit.op_class_0::SimdMult            0      0.00%     69.50% # Class of committed instruction
system.switch_cpus.commit.op_class_0::SimdMultAcc            0      0.00%     69.50% # Class of committed instruction
system.switch_cpus.commit.op_class_0::SimdShift            0      0.00%     69.50% # Class of committed instruction
system.switch_cpus.commit.op_class_0::SimdShiftAcc            0      0.00%     69.50% # Class of committed instruction
system.switch_cpus.commit.op_class_0::SimdSqrt            0      0.00%     69.50% # Class of committed instruction
system.switch_cpus.commit.op_class_0::SimdFloatAdd            0      0.00%     69.50% # Class of committed instruction
system.switch_cpus.commit.op_class_0::SimdFloatAlu            0      0.00%     69.50% # Class of committed instruction
system.switch_cpus.commit.op_class_0::SimdFloatCmp            0      0.00%     69.50% # Class of committed instruction
system.switch_cpus.commit.op_class_0::SimdFloatCvt            0      0.00%     69.50% # Class of committed instruction
system.switch_cpus.commit.op_class_0::SimdFloatDiv            0      0.00%     69.50% # Class of committed instruction
system.switch_cpus.commit.op_class_0::SimdFloatMisc            0      0.00%     69.50% # Class of committed instruction
system.switch_cpus.commit.op_class_0::SimdFloatMult            0      0.00%     69.50% # Class of committed instruction
system.switch_cpus.commit.op_class_0::SimdFloatMultAcc            0      0.00%     69.50% # Class of committed instruction
system.switch_cpus.commit.op_class_0::SimdFloatSqrt            0      0.00%     69.50% # Class of committed instruction
system.switch_cpus.commit.op_class_0::MemRead       766002     18.11%     87.61% # Class of committed instruction
system.switch_cpus.commit.op_class_0::MemWrite       433311     10.24%     97.85% # Class of committed instruction
system.switch_cpus.commit.op_class_0::IprAccess        90800      2.15%    100.00% # Class of committed instruction
system.switch_cpus.commit.op_class_0::InstPrefetch            0      0.00%    100.00% # Class of committed instruction
system.switch_cpus.commit.op_class_0::total      4229519                       # Class of committed instruction
system.switch_cpus.commit.bw_lim_events        220650                       # number cycles where commit BW limit reached
system.switch_cpus.rob.rob_reads             10955467                       # The number of ROB reads
system.switch_cpus.rob.rob_writes            10594848                       # The number of ROB writes
system.switch_cpus.timesIdled                   14131                       # Number of times that the entire CPU went into an idle state and unscheduled itself
system.switch_cpus.idleCycles                 1393025                       # Total number of cycles that the CPU has spent unscheduled due to idling
system.switch_cpus.committedInsts             4186339                       # Number of Instructions Simulated
system.switch_cpus.committedOps               4186339                       # Number of Ops (including micro ops) Simulated
system.switch_cpus.cpi                       1.803647                       # CPI: Cycles Per Instruction
system.switch_cpus.cpi_total                 1.803647                       # CPI: Total CPI of All Threads
system.switch_cpus.ipc                       0.554432                       # IPC: Instructions Per Cycle
system.switch_cpus.ipc_total                 0.554432                       # IPC: Total IPC of All Threads
system.switch_cpus.int_regfile_reads          6256015                       # number of integer regfile reads
system.switch_cpus.int_regfile_writes         3535308                       # number of integer regfile writes
system.switch_cpus.fp_regfile_reads             10602                       # number of floating regfile reads
system.switch_cpus.fp_regfile_writes            10259                       # number of floating regfile writes
system.switch_cpus.misc_regfile_reads          157179                       # number of misc regfile reads
system.switch_cpus.misc_regfile_writes          86785                       # number of misc regfile writes
system.tol2bus.trans_dist::ReadReq              44613                       # Transaction distribution
system.tol2bus.trans_dist::ReadResp             44614                       # Transaction distribution
system.tol2bus.trans_dist::WriteReq               136                       # Transaction distribution
system.tol2bus.trans_dist::WriteResp              136                       # Transaction distribution
system.tol2bus.trans_dist::Writeback            27347                       # Transaction distribution
system.tol2bus.trans_dist::UpgradeReq               4                       # Transaction distribution
system.tol2bus.trans_dist::SCUpgradeReq             1                       # Transaction distribution
system.tol2bus.trans_dist::UpgradeResp              5                       # Transaction distribution
system.tol2bus.trans_dist::ReadExReq            15433                       # Transaction distribution
system.tol2bus.trans_dist::ReadExResp           15433                       # Transaction distribution
system.tol2bus.pkt_count_system.cpu.icache.mem_side::system.l2.cpu_side        37643                       # Packet count per connected master and slave (bytes)
system.tol2bus.pkt_count_system.cpu.dcache.mem_side::system.l2.cpu_side       110069                       # Packet count per connected master and slave (bytes)
system.tol2bus.pkt_count::total                147712                       # Packet count per connected master and slave (bytes)
system.tol2bus.pkt_size_system.cpu.icache.mem_side::system.l2.cpu_side      1204288                       # Cumulative packet size per connected master and slave (bytes)
system.tol2bus.pkt_size_system.cpu.dcache.mem_side::system.l2.cpu_side      4369664                       # Cumulative packet size per connected master and slave (bytes)
system.tol2bus.pkt_size::total                5573952                       # Cumulative packet size per connected master and slave (bytes)
system.tol2bus.snoops                              10                       # Total snoops (count)
system.tol2bus.snoop_fanout::samples            87534                       # Request fanout histogram
system.tol2bus.snoop_fanout::mean                   1                       # Request fanout histogram
system.tol2bus.snoop_fanout::stdev                  0                       # Request fanout histogram
system.tol2bus.snoop_fanout::underflows             0      0.00%      0.00% # Request fanout histogram
system.tol2bus.snoop_fanout::0                      0      0.00%      0.00% # Request fanout histogram
system.tol2bus.snoop_fanout::1                  87534    100.00%    100.00% # Request fanout histogram
system.tol2bus.snoop_fanout::2                      0      0.00%    100.00% # Request fanout histogram
system.tol2bus.snoop_fanout::overflows              0      0.00%    100.00% # Request fanout histogram
system.tol2bus.snoop_fanout::min_value              1                       # Request fanout histogram
system.tol2bus.snoop_fanout::max_value              1                       # Request fanout histogram
system.tol2bus.snoop_fanout::total              87534                       # Request fanout histogram
system.tol2bus.reqLayer0.occupancy           71182000                       # Layer occupancy (ticks)
system.tol2bus.reqLayer0.utilization              1.9                       # Layer utilization (%)
system.tol2bus.respLayer0.occupancy          31008738                       # Layer occupancy (ticks)
system.tol2bus.respLayer0.utilization             0.8                       # Layer utilization (%)
system.tol2bus.respLayer1.occupancy          65825001                       # Layer occupancy (ticks)
system.tol2bus.respLayer1.utilization             1.7                       # Layer utilization (%)
system.tsunami.ethernet.descDMAReads                0                       # Number of descriptors the device read w/ DMA
system.tsunami.ethernet.descDMAWrites               0                       # Number of descriptors the device wrote w/ DMA
system.tsunami.ethernet.descDmaReadBytes            0                       # number of descriptor bytes read w/ DMA
system.tsunami.ethernet.descDmaWriteBytes            0                       # number of descriptor bytes write w/ DMA
system.tsunami.ethernet.postedSwi                   0                       # number of software interrupts posted to CPU
system.tsunami.ethernet.coalescedSwi              nan                       # average number of Swi's coalesced into each post
system.tsunami.ethernet.totalSwi                    0                       # total number of Swi written to ISR
system.tsunami.ethernet.postedRxIdle                0                       # number of rxIdle interrupts posted to CPU
system.tsunami.ethernet.coalescedRxIdle           nan                       # average number of RxIdle's coalesced into each post
system.tsunami.ethernet.totalRxIdle                 0                       # total number of RxIdle written to ISR
system.tsunami.ethernet.postedRxOk                  0                       # number of RxOk interrupts posted to CPU
system.tsunami.ethernet.coalescedRxOk             nan                       # average number of RxOk's coalesced into each post
system.tsunami.ethernet.totalRxOk                   0                       # total number of RxOk written to ISR
system.tsunami.ethernet.postedRxDesc                0                       # number of RxDesc interrupts posted to CPU
system.tsunami.ethernet.coalescedRxDesc           nan                       # average number of RxDesc's coalesced into each post
system.tsunami.ethernet.totalRxDesc                 0                       # total number of RxDesc written to ISR
system.tsunami.ethernet.postedTxOk                  0                       # number of TxOk interrupts posted to CPU
system.tsunami.ethernet.coalescedTxOk             nan                       # average number of TxOk's coalesced into each post
system.tsunami.ethernet.totalTxOk                   0                       # total number of TxOk written to ISR
system.tsunami.ethernet.postedTxIdle                0                       # number of TxIdle interrupts posted to CPU
system.tsunami.ethernet.coalescedTxIdle           nan                       # average number of TxIdle's coalesced into each post
system.tsunami.ethernet.totalTxIdle                 0                       # total number of TxIdle written to ISR
system.tsunami.ethernet.postedTxDesc                0                       # number of TxDesc interrupts posted to CPU
system.tsunami.ethernet.coalescedTxDesc           nan                       # average number of TxDesc's coalesced into each post
system.tsunami.ethernet.totalTxDesc                 0                       # total number of TxDesc written to ISR
system.tsunami.ethernet.postedRxOrn                 0                       # number of RxOrn posted to CPU
system.tsunami.ethernet.coalescedRxOrn            nan                       # average number of RxOrn's coalesced into each post
system.tsunami.ethernet.totalRxOrn                  0                       # total number of RxOrn written to ISR
system.tsunami.ethernet.coalescedTotal            nan                       # average number of interrupts coalesced into each post
system.tsunami.ethernet.postedInterrupts            0                       # number of posts to CPU
system.tsunami.ethernet.droppedPackets              0                       # number of packets dropped
system.switch_cpus.kern.inst.arm                    0                       # number of arm instructions executed
system.switch_cpus.kern.inst.quiesce                0                       # number of quiesce instructions executed
system.switch_cpus.kern.inst.hwrei                  0                       # number of hwrei instructions executed
system.switch_cpus.kern.mode_switch::kernel            0                       # number of protection mode switches
system.switch_cpus.kern.mode_switch::user            0                       # number of protection mode switches
system.switch_cpus.kern.mode_switch::idle            0                       # number of protection mode switches
system.switch_cpus.kern.mode_good::kernel            0                      
system.switch_cpus.kern.mode_good::user             0                      
system.switch_cpus.kern.mode_good::idle             0                      
system.switch_cpus.kern.mode_switch_good::kernel          nan                       # fraction of useful protection mode switches
system.switch_cpus.kern.mode_switch_good::user          nan                       # fraction of useful protection mode switches
system.switch_cpus.kern.mode_switch_good::idle          nan                       # fraction of useful protection mode switches
system.switch_cpus.kern.mode_switch_good::total          nan                       # fraction of useful protection mode switches
system.switch_cpus.kern.mode_ticks::kernel            0                       # number of ticks spent at the given mode
system.switch_cpus.kern.mode_ticks::user            0                       # number of ticks spent at the given mode
system.switch_cpus.kern.mode_ticks::idle            0                       # number of ticks spent at the given mode
system.switch_cpus.kern.swap_context                0                       # number of times the context was actually changed

---------- End Simulation Statistics   ----------
