
---------- Begin Simulation Statistics ----------
sim_seconds                                  0.001183                       # Number of seconds simulated
sim_ticks                                  1182649500                       # Number of ticks simulated
final_tick                               2262434388000                       # Number of ticks from beginning of simulation (restored from checkpoints and never reset)
sim_freq                                 1000000000000                       # Frequency of simulated ticks
host_inst_rate                               32756818                       # Simulator instruction rate (inst/s)
host_op_rate                                 32756743                       # Simulator op (including micro ops) rate (op/s)
host_tick_rate                              328614386                       # Simulator tick rate (ticks/s)
host_mem_usage                                 741908                       # Number of bytes of host memory used
host_seconds                                     3.60                       # Real time elapsed on the host
sim_insts                                   117887932                       # Number of instructions simulated
sim_ops                                     117887932                       # Number of ops (including micro ops) simulated
system.voltage_domain.voltage                       1                       # Voltage in Volts
system.clk_domain.clock                          1000                       # Clock period in ticks
system.mem_ctrls.bytes_read::switch_cpus0.inst       179328                       # Number of bytes read from this memory
system.mem_ctrls.bytes_read::switch_cpus0.data       245504                       # Number of bytes read from this memory
system.mem_ctrls.bytes_read::switch_cpus1.inst        71872                       # Number of bytes read from this memory
system.mem_ctrls.bytes_read::switch_cpus1.data       127808                       # Number of bytes read from this memory
system.mem_ctrls.bytes_read::switch_cpus2.inst         5312                       # Number of bytes read from this memory
system.mem_ctrls.bytes_read::switch_cpus2.data         2432                       # Number of bytes read from this memory
system.mem_ctrls.bytes_read::switch_cpus3.inst       242752                       # Number of bytes read from this memory
system.mem_ctrls.bytes_read::switch_cpus3.data       694272                       # Number of bytes read from this memory
system.mem_ctrls.bytes_read::total            1569280                       # Number of bytes read from this memory
system.mem_ctrls.bytes_inst_read::switch_cpus0.inst       179328                       # Number of instructions bytes read from this memory
system.mem_ctrls.bytes_inst_read::switch_cpus1.inst        71872                       # Number of instructions bytes read from this memory
system.mem_ctrls.bytes_inst_read::switch_cpus2.inst         5312                       # Number of instructions bytes read from this memory
system.mem_ctrls.bytes_inst_read::switch_cpus3.inst       242752                       # Number of instructions bytes read from this memory
system.mem_ctrls.bytes_inst_read::total        499264                       # Number of instructions bytes read from this memory
system.mem_ctrls.bytes_written::writebacks       659712                       # Number of bytes written to this memory
system.mem_ctrls.bytes_written::total          659712                       # Number of bytes written to this memory
system.mem_ctrls.num_reads::switch_cpus0.inst         2802                       # Number of read requests responded to by this memory
system.mem_ctrls.num_reads::switch_cpus0.data         3836                       # Number of read requests responded to by this memory
system.mem_ctrls.num_reads::switch_cpus1.inst         1123                       # Number of read requests responded to by this memory
system.mem_ctrls.num_reads::switch_cpus1.data         1997                       # Number of read requests responded to by this memory
system.mem_ctrls.num_reads::switch_cpus2.inst           83                       # Number of read requests responded to by this memory
system.mem_ctrls.num_reads::switch_cpus2.data           38                       # Number of read requests responded to by this memory
system.mem_ctrls.num_reads::switch_cpus3.inst         3793                       # Number of read requests responded to by this memory
system.mem_ctrls.num_reads::switch_cpus3.data        10848                       # Number of read requests responded to by this memory
system.mem_ctrls.num_reads::total               24520                       # Number of read requests responded to by this memory
system.mem_ctrls.num_writes::writebacks         10308                       # Number of write requests responded to by this memory
system.mem_ctrls.num_writes::total              10308                       # Number of write requests responded to by this memory
system.mem_ctrls.bw_read::switch_cpus0.inst    151632415                       # Total read bandwidth from this memory (bytes/s)
system.mem_ctrls.bw_read::switch_cpus0.data    207588132                       # Total read bandwidth from this memory (bytes/s)
system.mem_ctrls.bw_read::switch_cpus1.inst     60772021                       # Total read bandwidth from this memory (bytes/s)
system.mem_ctrls.bw_read::switch_cpus1.data    108069212                       # Total read bandwidth from this memory (bytes/s)
system.mem_ctrls.bw_read::switch_cpus2.inst      4491610                       # Total read bandwidth from this memory (bytes/s)
system.mem_ctrls.bw_read::switch_cpus2.data      2056400                       # Total read bandwidth from this memory (bytes/s)
system.mem_ctrls.bw_read::switch_cpus3.inst    205261153                       # Total read bandwidth from this memory (bytes/s)
system.mem_ctrls.bw_read::switch_cpus3.data    587047980                       # Total read bandwidth from this memory (bytes/s)
system.mem_ctrls.bw_read::total            1326918922                       # Total read bandwidth from this memory (bytes/s)
system.mem_ctrls.bw_inst_read::switch_cpus0.inst    151632415                       # Instruction read bandwidth from this memory (bytes/s)
system.mem_ctrls.bw_inst_read::switch_cpus1.inst     60772021                       # Instruction read bandwidth from this memory (bytes/s)
system.mem_ctrls.bw_inst_read::switch_cpus2.inst      4491610                       # Instruction read bandwidth from this memory (bytes/s)
system.mem_ctrls.bw_inst_read::switch_cpus3.inst    205261153                       # Instruction read bandwidth from this memory (bytes/s)
system.mem_ctrls.bw_inst_read::total        422157199                       # Instruction read bandwidth from this memory (bytes/s)
system.mem_ctrls.bw_write::writebacks       557825459                       # Write bandwidth from this memory (bytes/s)
system.mem_ctrls.bw_write::total            557825459                       # Write bandwidth from this memory (bytes/s)
system.mem_ctrls.bw_total::writebacks       557825459                       # Total bandwidth to/from this memory (bytes/s)
system.mem_ctrls.bw_total::switch_cpus0.inst    151632415                       # Total bandwidth to/from this memory (bytes/s)
system.mem_ctrls.bw_total::switch_cpus0.data    207588132                       # Total bandwidth to/from this memory (bytes/s)
system.mem_ctrls.bw_total::switch_cpus1.inst     60772021                       # Total bandwidth to/from this memory (bytes/s)
system.mem_ctrls.bw_total::switch_cpus1.data    108069212                       # Total bandwidth to/from this memory (bytes/s)
system.mem_ctrls.bw_total::switch_cpus2.inst      4491610                       # Total bandwidth to/from this memory (bytes/s)
system.mem_ctrls.bw_total::switch_cpus2.data      2056400                       # Total bandwidth to/from this memory (bytes/s)
system.mem_ctrls.bw_total::switch_cpus3.inst    205261153                       # Total bandwidth to/from this memory (bytes/s)
system.mem_ctrls.bw_total::switch_cpus3.data    587047980                       # Total bandwidth to/from this memory (bytes/s)
system.mem_ctrls.bw_total::total           1884744381                       # Total bandwidth to/from this memory (bytes/s)
system.mem_ctrls.readReqs                       24520                       # Number of read requests accepted
system.mem_ctrls.writeReqs                      10308                       # Number of write requests accepted
system.mem_ctrls.readBursts                     24520                       # Number of DRAM read bursts, including those serviced by the write queue
system.mem_ctrls.writeBursts                    10308                       # Number of DRAM write bursts, including those merged in the write queue
system.mem_ctrls.bytesReadDRAM                1565440                       # Total number of bytes read from DRAM
system.mem_ctrls.bytesReadWrQ                    3840                       # Total number of bytes read from write queue
system.mem_ctrls.bytesWritten                  658496                       # Total number of bytes written to DRAM
system.mem_ctrls.bytesReadSys                 1569280                       # Total read bytes from the system interface side
system.mem_ctrls.bytesWrittenSys               659712                       # Total written bytes from the system interface side
system.mem_ctrls.servicedByWrQ                     60                       # Number of DRAM read bursts serviced by the write queue
system.mem_ctrls.mergedWrBursts                     0                       # Number of DRAM write bursts merged with an existing one
system.mem_ctrls.neitherReadNorWriteReqs           58                       # Number of requests that are neither read nor write
system.mem_ctrls.perBankRdBursts::0              1142                       # Per bank write bursts
system.mem_ctrls.perBankRdBursts::1              1206                       # Per bank write bursts
system.mem_ctrls.perBankRdBursts::2              1549                       # Per bank write bursts
system.mem_ctrls.perBankRdBursts::3               968                       # Per bank write bursts
system.mem_ctrls.perBankRdBursts::4              1300                       # Per bank write bursts
system.mem_ctrls.perBankRdBursts::5              1968                       # Per bank write bursts
system.mem_ctrls.perBankRdBursts::6              1410                       # Per bank write bursts
system.mem_ctrls.perBankRdBursts::7              1211                       # Per bank write bursts
system.mem_ctrls.perBankRdBursts::8              1670                       # Per bank write bursts
system.mem_ctrls.perBankRdBursts::9              1921                       # Per bank write bursts
system.mem_ctrls.perBankRdBursts::10             1393                       # Per bank write bursts
system.mem_ctrls.perBankRdBursts::11             1298                       # Per bank write bursts
system.mem_ctrls.perBankRdBursts::12             1740                       # Per bank write bursts
system.mem_ctrls.perBankRdBursts::13             2435                       # Per bank write bursts
system.mem_ctrls.perBankRdBursts::14             1708                       # Per bank write bursts
system.mem_ctrls.perBankRdBursts::15             1541                       # Per bank write bursts
system.mem_ctrls.perBankWrBursts::0               420                       # Per bank write bursts
system.mem_ctrls.perBankWrBursts::1               622                       # Per bank write bursts
system.mem_ctrls.perBankWrBursts::2               386                       # Per bank write bursts
system.mem_ctrls.perBankWrBursts::3               205                       # Per bank write bursts
system.mem_ctrls.perBankWrBursts::4               332                       # Per bank write bursts
system.mem_ctrls.perBankWrBursts::5               787                       # Per bank write bursts
system.mem_ctrls.perBankWrBursts::6               401                       # Per bank write bursts
system.mem_ctrls.perBankWrBursts::7               297                       # Per bank write bursts
system.mem_ctrls.perBankWrBursts::8               412                       # Per bank write bursts
system.mem_ctrls.perBankWrBursts::9               602                       # Per bank write bursts
system.mem_ctrls.perBankWrBursts::10              706                       # Per bank write bursts
system.mem_ctrls.perBankWrBursts::11              760                       # Per bank write bursts
system.mem_ctrls.perBankWrBursts::12             1135                       # Per bank write bursts
system.mem_ctrls.perBankWrBursts::13             1222                       # Per bank write bursts
system.mem_ctrls.perBankWrBursts::14             1040                       # Per bank write bursts
system.mem_ctrls.perBankWrBursts::15              962                       # Per bank write bursts
system.mem_ctrls.numRdRetry                         0                       # Number of times read queue was full causing retry
system.mem_ctrls.numWrRetry                         0                       # Number of times write queue was full causing retry
system.mem_ctrls.totGap                    1182562000                       # Total gap between requests
system.mem_ctrls.readPktSize::0                     0                       # Read request sizes (log2)
system.mem_ctrls.readPktSize::1                     0                       # Read request sizes (log2)
system.mem_ctrls.readPktSize::2                     0                       # Read request sizes (log2)
system.mem_ctrls.readPktSize::3                     0                       # Read request sizes (log2)
system.mem_ctrls.readPktSize::4                     0                       # Read request sizes (log2)
system.mem_ctrls.readPktSize::5                     0                       # Read request sizes (log2)
system.mem_ctrls.readPktSize::6                 24520                       # Read request sizes (log2)
system.mem_ctrls.writePktSize::0                    0                       # Write request sizes (log2)
system.mem_ctrls.writePktSize::1                    0                       # Write request sizes (log2)
system.mem_ctrls.writePktSize::2                    0                       # Write request sizes (log2)
system.mem_ctrls.writePktSize::3                    0                       # Write request sizes (log2)
system.mem_ctrls.writePktSize::4                    0                       # Write request sizes (log2)
system.mem_ctrls.writePktSize::5                    0                       # Write request sizes (log2)
system.mem_ctrls.writePktSize::6                10308                       # Write request sizes (log2)
system.mem_ctrls.rdQLenPdf::0                   11359                       # What read queue length does an incoming req see
system.mem_ctrls.rdQLenPdf::1                    6759                       # What read queue length does an incoming req see
system.mem_ctrls.rdQLenPdf::2                    3797                       # What read queue length does an incoming req see
system.mem_ctrls.rdQLenPdf::3                    2115                       # What read queue length does an incoming req see
system.mem_ctrls.rdQLenPdf::4                     262                       # What read queue length does an incoming req see
system.mem_ctrls.rdQLenPdf::5                      89                       # What read queue length does an incoming req see
system.mem_ctrls.rdQLenPdf::6                      44                       # What read queue length does an incoming req see
system.mem_ctrls.rdQLenPdf::7                      21                       # What read queue length does an incoming req see
system.mem_ctrls.rdQLenPdf::8                       7                       # What read queue length does an incoming req see
system.mem_ctrls.rdQLenPdf::9                       3                       # What read queue length does an incoming req see
system.mem_ctrls.rdQLenPdf::10                      1                       # What read queue length does an incoming req see
system.mem_ctrls.rdQLenPdf::11                      1                       # What read queue length does an incoming req see
system.mem_ctrls.rdQLenPdf::12                      1                       # What read queue length does an incoming req see
system.mem_ctrls.rdQLenPdf::13                      1                       # What read queue length does an incoming req see
system.mem_ctrls.rdQLenPdf::14                      0                       # What read queue length does an incoming req see
system.mem_ctrls.rdQLenPdf::15                      0                       # What read queue length does an incoming req see
system.mem_ctrls.rdQLenPdf::16                      0                       # What read queue length does an incoming req see
system.mem_ctrls.rdQLenPdf::17                      0                       # What read queue length does an incoming req see
system.mem_ctrls.rdQLenPdf::18                      0                       # What read queue length does an incoming req see
system.mem_ctrls.rdQLenPdf::19                      0                       # What read queue length does an incoming req see
system.mem_ctrls.rdQLenPdf::20                      0                       # What read queue length does an incoming req see
system.mem_ctrls.rdQLenPdf::21                      0                       # What read queue length does an incoming req see
system.mem_ctrls.rdQLenPdf::22                      0                       # What read queue length does an incoming req see
system.mem_ctrls.rdQLenPdf::23                      0                       # What read queue length does an incoming req see
system.mem_ctrls.rdQLenPdf::24                      0                       # What read queue length does an incoming req see
system.mem_ctrls.rdQLenPdf::25                      0                       # What read queue length does an incoming req see
system.mem_ctrls.rdQLenPdf::26                      0                       # What read queue length does an incoming req see
system.mem_ctrls.rdQLenPdf::27                      0                       # What read queue length does an incoming req see
system.mem_ctrls.rdQLenPdf::28                      0                       # What read queue length does an incoming req see
system.mem_ctrls.rdQLenPdf::29                      0                       # What read queue length does an incoming req see
system.mem_ctrls.rdQLenPdf::30                      0                       # What read queue length does an incoming req see
system.mem_ctrls.rdQLenPdf::31                      0                       # What read queue length does an incoming req see
system.mem_ctrls.wrQLenPdf::0                       1                       # What write queue length does an incoming req see
system.mem_ctrls.wrQLenPdf::1                       1                       # What write queue length does an incoming req see
system.mem_ctrls.wrQLenPdf::2                       1                       # What write queue length does an incoming req see
system.mem_ctrls.wrQLenPdf::3                       1                       # What write queue length does an incoming req see
system.mem_ctrls.wrQLenPdf::4                       1                       # What write queue length does an incoming req see
system.mem_ctrls.wrQLenPdf::5                       1                       # What write queue length does an incoming req see
system.mem_ctrls.wrQLenPdf::6                       1                       # What write queue length does an incoming req see
system.mem_ctrls.wrQLenPdf::7                       1                       # What write queue length does an incoming req see
system.mem_ctrls.wrQLenPdf::8                       1                       # What write queue length does an incoming req see
system.mem_ctrls.wrQLenPdf::9                       1                       # What write queue length does an incoming req see
system.mem_ctrls.wrQLenPdf::10                      1                       # What write queue length does an incoming req see
system.mem_ctrls.wrQLenPdf::11                      1                       # What write queue length does an incoming req see
system.mem_ctrls.wrQLenPdf::12                      1                       # What write queue length does an incoming req see
system.mem_ctrls.wrQLenPdf::13                      1                       # What write queue length does an incoming req see
system.mem_ctrls.wrQLenPdf::14                      1                       # What write queue length does an incoming req see
system.mem_ctrls.wrQLenPdf::15                     38                       # What write queue length does an incoming req see
system.mem_ctrls.wrQLenPdf::16                     47                       # What write queue length does an incoming req see
system.mem_ctrls.wrQLenPdf::17                    286                       # What write queue length does an incoming req see
system.mem_ctrls.wrQLenPdf::18                    449                       # What write queue length does an incoming req see
system.mem_ctrls.wrQLenPdf::19                    570                       # What write queue length does an incoming req see
system.mem_ctrls.wrQLenPdf::20                    641                       # What write queue length does an incoming req see
system.mem_ctrls.wrQLenPdf::21                    657                       # What write queue length does an incoming req see
system.mem_ctrls.wrQLenPdf::22                    668                       # What write queue length does an incoming req see
system.mem_ctrls.wrQLenPdf::23                    658                       # What write queue length does an incoming req see
system.mem_ctrls.wrQLenPdf::24                    680                       # What write queue length does an incoming req see
system.mem_ctrls.wrQLenPdf::25                    682                       # What write queue length does an incoming req see
system.mem_ctrls.wrQLenPdf::26                    757                       # What write queue length does an incoming req see
system.mem_ctrls.wrQLenPdf::27                    698                       # What write queue length does an incoming req see
system.mem_ctrls.wrQLenPdf::28                    697                       # What write queue length does an incoming req see
system.mem_ctrls.wrQLenPdf::29                    749                       # What write queue length does an incoming req see
system.mem_ctrls.wrQLenPdf::30                    680                       # What write queue length does an incoming req see
system.mem_ctrls.wrQLenPdf::31                    672                       # What write queue length does an incoming req see
system.mem_ctrls.wrQLenPdf::32                    649                       # What write queue length does an incoming req see
system.mem_ctrls.wrQLenPdf::33                      6                       # What write queue length does an incoming req see
system.mem_ctrls.wrQLenPdf::34                      4                       # What write queue length does an incoming req see
system.mem_ctrls.wrQLenPdf::35                      2                       # What write queue length does an incoming req see
system.mem_ctrls.wrQLenPdf::36                      1                       # What write queue length does an incoming req see
system.mem_ctrls.wrQLenPdf::37                      1                       # What write queue length does an incoming req see
system.mem_ctrls.wrQLenPdf::38                      1                       # What write queue length does an incoming req see
system.mem_ctrls.wrQLenPdf::39                      0                       # What write queue length does an incoming req see
system.mem_ctrls.wrQLenPdf::40                      0                       # What write queue length does an incoming req see
system.mem_ctrls.wrQLenPdf::41                      0                       # What write queue length does an incoming req see
system.mem_ctrls.wrQLenPdf::42                      0                       # What write queue length does an incoming req see
system.mem_ctrls.wrQLenPdf::43                      0                       # What write queue length does an incoming req see
system.mem_ctrls.wrQLenPdf::44                      0                       # What write queue length does an incoming req see
system.mem_ctrls.wrQLenPdf::45                      0                       # What write queue length does an incoming req see
system.mem_ctrls.wrQLenPdf::46                      0                       # What write queue length does an incoming req see
system.mem_ctrls.wrQLenPdf::47                      0                       # What write queue length does an incoming req see
system.mem_ctrls.wrQLenPdf::48                      0                       # What write queue length does an incoming req see
system.mem_ctrls.wrQLenPdf::49                      0                       # What write queue length does an incoming req see
system.mem_ctrls.wrQLenPdf::50                      0                       # What write queue length does an incoming req see
system.mem_ctrls.wrQLenPdf::51                      0                       # What write queue length does an incoming req see
system.mem_ctrls.wrQLenPdf::52                      0                       # What write queue length does an incoming req see
system.mem_ctrls.wrQLenPdf::53                      0                       # What write queue length does an incoming req see
system.mem_ctrls.wrQLenPdf::54                      0                       # What write queue length does an incoming req see
system.mem_ctrls.wrQLenPdf::55                      0                       # What write queue length does an incoming req see
system.mem_ctrls.wrQLenPdf::56                      0                       # What write queue length does an incoming req see
system.mem_ctrls.wrQLenPdf::57                      0                       # What write queue length does an incoming req see
system.mem_ctrls.wrQLenPdf::58                      0                       # What write queue length does an incoming req see
system.mem_ctrls.wrQLenPdf::59                      0                       # What write queue length does an incoming req see
system.mem_ctrls.wrQLenPdf::60                      0                       # What write queue length does an incoming req see
system.mem_ctrls.wrQLenPdf::61                      0                       # What write queue length does an incoming req see
system.mem_ctrls.wrQLenPdf::62                      0                       # What write queue length does an incoming req see
system.mem_ctrls.wrQLenPdf::63                      0                       # What write queue length does an incoming req see
system.mem_ctrls.bytesPerActivate::samples         9129                       # Bytes accessed per row activation
system.mem_ctrls.bytesPerActivate::mean    243.205609                       # Bytes accessed per row activation
system.mem_ctrls.bytesPerActivate::gmean   142.338043                       # Bytes accessed per row activation
system.mem_ctrls.bytesPerActivate::stdev   295.062046                       # Bytes accessed per row activation
system.mem_ctrls.bytesPerActivate::0-127         4389     48.08%     48.08% # Bytes accessed per row activation
system.mem_ctrls.bytesPerActivate::128-255         2189     23.98%     72.06% # Bytes accessed per row activation
system.mem_ctrls.bytesPerActivate::256-383          718      7.87%     79.92% # Bytes accessed per row activation
system.mem_ctrls.bytesPerActivate::384-511          397      4.35%     84.27% # Bytes accessed per row activation
system.mem_ctrls.bytesPerActivate::512-639          234      2.56%     86.83% # Bytes accessed per row activation
system.mem_ctrls.bytesPerActivate::640-767          177      1.94%     88.77% # Bytes accessed per row activation
system.mem_ctrls.bytesPerActivate::768-895          140      1.53%     90.31% # Bytes accessed per row activation
system.mem_ctrls.bytesPerActivate::896-1023          113      1.24%     91.54% # Bytes accessed per row activation
system.mem_ctrls.bytesPerActivate::1024-1151          772      8.46%    100.00% # Bytes accessed per row activation
system.mem_ctrls.bytesPerActivate::total         9129                       # Bytes accessed per row activation
system.mem_ctrls.rdPerTurnAround::samples          636                       # Reads before turning the bus around for writes
system.mem_ctrls.rdPerTurnAround::mean      38.435535                       # Reads before turning the bus around for writes
system.mem_ctrls.rdPerTurnAround::gmean     31.639324                       # Reads before turning the bus around for writes
system.mem_ctrls.rdPerTurnAround::stdev     26.513237                       # Reads before turning the bus around for writes
system.mem_ctrls.rdPerTurnAround::8-15             37      5.82%      5.82% # Reads before turning the bus around for writes
system.mem_ctrls.rdPerTurnAround::16-23           201     31.60%     37.42% # Reads before turning the bus around for writes
system.mem_ctrls.rdPerTurnAround::24-31            90     14.15%     51.57% # Reads before turning the bus around for writes
system.mem_ctrls.rdPerTurnAround::32-39            70     11.01%     62.58% # Reads before turning the bus around for writes
system.mem_ctrls.rdPerTurnAround::40-47            75     11.79%     74.37% # Reads before turning the bus around for writes
system.mem_ctrls.rdPerTurnAround::48-55            38      5.97%     80.35% # Reads before turning the bus around for writes
system.mem_ctrls.rdPerTurnAround::56-63            29      4.56%     84.91% # Reads before turning the bus around for writes
system.mem_ctrls.rdPerTurnAround::64-71            29      4.56%     89.47% # Reads before turning the bus around for writes
system.mem_ctrls.rdPerTurnAround::72-79            16      2.52%     91.98% # Reads before turning the bus around for writes
system.mem_ctrls.rdPerTurnAround::80-87             8      1.26%     93.24% # Reads before turning the bus around for writes
system.mem_ctrls.rdPerTurnAround::88-95            12      1.89%     95.13% # Reads before turning the bus around for writes
system.mem_ctrls.rdPerTurnAround::96-103           12      1.89%     97.01% # Reads before turning the bus around for writes
system.mem_ctrls.rdPerTurnAround::104-111            5      0.79%     97.80% # Reads before turning the bus around for writes
system.mem_ctrls.rdPerTurnAround::112-119            4      0.63%     98.43% # Reads before turning the bus around for writes
system.mem_ctrls.rdPerTurnAround::120-127            2      0.31%     98.74% # Reads before turning the bus around for writes
system.mem_ctrls.rdPerTurnAround::128-135            3      0.47%     99.21% # Reads before turning the bus around for writes
system.mem_ctrls.rdPerTurnAround::136-143            2      0.31%     99.53% # Reads before turning the bus around for writes
system.mem_ctrls.rdPerTurnAround::144-151            1      0.16%     99.69% # Reads before turning the bus around for writes
system.mem_ctrls.rdPerTurnAround::160-167            1      0.16%     99.84% # Reads before turning the bus around for writes
system.mem_ctrls.rdPerTurnAround::208-215            1      0.16%    100.00% # Reads before turning the bus around for writes
system.mem_ctrls.rdPerTurnAround::total           636                       # Reads before turning the bus around for writes
system.mem_ctrls.wrPerTurnAround::samples          636                       # Writes before turning the bus around for reads
system.mem_ctrls.wrPerTurnAround::mean      16.177673                       # Writes before turning the bus around for reads
system.mem_ctrls.wrPerTurnAround::gmean     16.166666                       # Writes before turning the bus around for reads
system.mem_ctrls.wrPerTurnAround::stdev      0.623582                       # Writes before turning the bus around for reads
system.mem_ctrls.wrPerTurnAround::16              583     91.67%     91.67% # Writes before turning the bus around for reads
system.mem_ctrls.wrPerTurnAround::17                8      1.26%     92.92% # Writes before turning the bus around for reads
system.mem_ctrls.wrPerTurnAround::18               32      5.03%     97.96% # Writes before turning the bus around for reads
system.mem_ctrls.wrPerTurnAround::19               11      1.73%     99.69% # Writes before turning the bus around for reads
system.mem_ctrls.wrPerTurnAround::20                2      0.31%    100.00% # Writes before turning the bus around for reads
system.mem_ctrls.wrPerTurnAround::total           636                       # Writes before turning the bus around for reads
system.mem_ctrls.totQLat                    502182000                       # Total ticks spent queuing
system.mem_ctrls.totMemAccLat               960807000                       # Total ticks spent from burst creation until serviced by the DRAM
system.mem_ctrls.totBusLat                  122300000                       # Total ticks spent in databus transfers
system.mem_ctrls.avgQLat                     20530.74                       # Average queueing delay per DRAM burst
system.mem_ctrls.avgBusLat                    5000.00                       # Average bus latency per DRAM burst
system.mem_ctrls.avgMemAccLat                39280.74                       # Average memory access latency per DRAM burst
system.mem_ctrls.avgRdBW                      1323.67                       # Average DRAM read bandwidth in MiByte/s
system.mem_ctrls.avgWrBW                       556.80                       # Average achieved write bandwidth in MiByte/s
system.mem_ctrls.avgRdBWSys                   1326.92                       # Average system read bandwidth in MiByte/s
system.mem_ctrls.avgWrBWSys                    557.83                       # Average system write bandwidth in MiByte/s
system.mem_ctrls.peakBW                      12800.00                       # Theoretical peak bandwidth in MiByte/s
system.mem_ctrls.busUtil                        14.69                       # Data bus utilization in percentage
system.mem_ctrls.busUtilRead                    10.34                       # Data bus utilization in percentage for reads
system.mem_ctrls.busUtilWrite                    4.35                       # Data bus utilization in percentage for writes
system.mem_ctrls.avgRdQLen                       1.93                       # Average read queue length when enqueuing
system.mem_ctrls.avgWrQLen                      25.85                       # Average write queue length when enqueuing
system.mem_ctrls.readRowHits                    18242                       # Number of row buffer hits during reads
system.mem_ctrls.writeRowHits                    7363                       # Number of row buffer hits during writes
system.mem_ctrls.readRowHitRate                 74.58                       # Row buffer hit rate for reads
system.mem_ctrls.writeRowHitRate                71.43                       # Row buffer hit rate for writes
system.mem_ctrls.avgGap                      33954.35                       # Average gap between requests
system.mem_ctrls.pageHitRate                    73.65                       # Row buffer hit rate, read and write combined
system.mem_ctrls_0.actEnergy                 27064800                       # Energy for activate commands per rank (pJ)
system.mem_ctrls_0.preEnergy                 14767500                       # Energy for precharge commands per rank (pJ)
system.mem_ctrls_0.readEnergy                83530200                       # Energy for read commands per rank (pJ)
system.mem_ctrls_0.writeEnergy               22019040                       # Energy for write commands per rank (pJ)
system.mem_ctrls_0.refreshEnergy             76792560                       # Energy for refresh commands per rank (pJ)
system.mem_ctrls_0.actBackEnergy            779847210                       # Energy for active background per rank (pJ)
system.mem_ctrls_0.preBackEnergy             21513750                       # Energy for precharge background per rank (pJ)
system.mem_ctrls_0.totalEnergy             1025535060                       # Total energy per rank (pJ)
system.mem_ctrls_0.averagePower            872.065673                       # Core power per rank (mW)
system.mem_ctrls_0.memoryStateTime::IDLE     30574500                       # Time in different power states
system.mem_ctrls_0.memoryStateTime::REF      39260000                       # Time in different power states
system.mem_ctrls_0.memoryStateTime::PRE_PDN            0                       # Time in different power states
system.mem_ctrls_0.memoryStateTime::ACT    1106163000                       # Time in different power states
system.mem_ctrls_0.memoryStateTime::ACT_PDN            0                       # Time in different power states
system.mem_ctrls_1.actEnergy                 41504400                       # Energy for activate commands per rank (pJ)
system.mem_ctrls_1.preEnergy                 22646250                       # Energy for precharge commands per rank (pJ)
system.mem_ctrls_1.readEnergy               106446600                       # Energy for read commands per rank (pJ)
system.mem_ctrls_1.writeEnergy               44226000                       # Energy for write commands per rank (pJ)
system.mem_ctrls_1.refreshEnergy             76792560                       # Energy for refresh commands per rank (pJ)
system.mem_ctrls_1.actBackEnergy            785994660                       # Energy for active background per rank (pJ)
system.mem_ctrls_1.preBackEnergy             16121250                       # Energy for precharge background per rank (pJ)
system.mem_ctrls_1.totalEnergy             1093731720                       # Total energy per rank (pJ)
system.mem_ctrls_1.averagePower            930.056831                       # Core power per rank (mW)
system.mem_ctrls_1.memoryStateTime::IDLE     22442500                       # Time in different power states
system.mem_ctrls_1.memoryStateTime::REF      39260000                       # Time in different power states
system.mem_ctrls_1.memoryStateTime::PRE_PDN            0                       # Time in different power states
system.mem_ctrls_1.memoryStateTime::ACT    1114630500                       # Time in different power states
system.mem_ctrls_1.memoryStateTime::ACT_PDN            0                       # Time in different power states
system.cpu_voltage_domain.voltage                   1                       # Voltage in Volts
system.cpu_clk_domain.clock                       500                       # Clock period in ticks
system.cpu0.dtb.fetch_hits                          0                       # ITB hits
system.cpu0.dtb.fetch_misses                        0                       # ITB misses
system.cpu0.dtb.fetch_acv                           0                       # ITB acv
system.cpu0.dtb.fetch_accesses                      0                       # ITB accesses
system.cpu0.dtb.read_hits                           0                       # DTB read hits
system.cpu0.dtb.read_misses                         0                       # DTB read misses
system.cpu0.dtb.read_acv                            0                       # DTB read access violations
system.cpu0.dtb.read_accesses                       0                       # DTB read accesses
system.cpu0.dtb.write_hits                          0                       # DTB write hits
system.cpu0.dtb.write_misses                        0                       # DTB write misses
system.cpu0.dtb.write_acv                           0                       # DTB write access violations
system.cpu0.dtb.write_accesses                      0                       # DTB write accesses
system.cpu0.dtb.data_hits                           0                       # DTB hits
system.cpu0.dtb.data_misses                         0                       # DTB misses
system.cpu0.dtb.data_acv                            0                       # DTB access violations
system.cpu0.dtb.data_accesses                       0                       # DTB accesses
system.cpu0.itb.fetch_hits                          0                       # ITB hits
system.cpu0.itb.fetch_misses                        0                       # ITB misses
system.cpu0.itb.fetch_acv                           0                       # ITB acv
system.cpu0.itb.fetch_accesses                      0                       # ITB accesses
system.cpu0.itb.read_hits                           0                       # DTB read hits
system.cpu0.itb.read_misses                         0                       # DTB read misses
system.cpu0.itb.read_acv                            0                       # DTB read access violations
system.cpu0.itb.read_accesses                       0                       # DTB read accesses
system.cpu0.itb.write_hits                          0                       # DTB write hits
system.cpu0.itb.write_misses                        0                       # DTB write misses
system.cpu0.itb.write_acv                           0                       # DTB write access violations
system.cpu0.itb.write_accesses                      0                       # DTB write accesses
system.cpu0.itb.data_hits                           0                       # DTB hits
system.cpu0.itb.data_misses                         0                       # DTB misses
system.cpu0.itb.data_acv                            0                       # DTB access violations
system.cpu0.itb.data_accesses                       0                       # DTB accesses
system.cpu0.numCycles                               0                       # number of cpu cycles simulated
system.cpu0.numWorkItemsStarted                     0                       # number of work items this cpu started
system.cpu0.numWorkItemsCompleted                   0                       # number of work items this cpu completed
system.cpu0.committedInsts                          0                       # Number of instructions committed
system.cpu0.committedOps                            0                       # Number of ops (including micro ops) committed
system.cpu0.num_int_alu_accesses                    0                       # Number of integer alu accesses
system.cpu0.num_fp_alu_accesses                     0                       # Number of float alu accesses
system.cpu0.num_func_calls                          0                       # number of times a function call or return occured
system.cpu0.num_conditional_control_insts            0                       # number of instructions that are conditional controls
system.cpu0.num_int_insts                           0                       # number of integer instructions
system.cpu0.num_fp_insts                            0                       # number of float instructions
system.cpu0.num_int_register_reads                  0                       # number of times the integer registers were read
system.cpu0.num_int_register_writes                 0                       # number of times the integer registers were written
system.cpu0.num_fp_register_reads                   0                       # number of times the floating registers were read
system.cpu0.num_fp_register_writes                  0                       # number of times the floating registers were written
system.cpu0.num_mem_refs                            0                       # number of memory refs
system.cpu0.num_load_insts                          0                       # Number of load instructions
system.cpu0.num_store_insts                         0                       # Number of store instructions
system.cpu0.num_idle_cycles                         0                       # Number of idle cycles
system.cpu0.num_busy_cycles                         0                       # Number of busy cycles
system.cpu0.not_idle_fraction                       1                       # Percentage of non-idle cycles
system.cpu0.idle_fraction                           0                       # Percentage of idle cycles
system.cpu0.op_class::No_OpClass                    0                       # Class of executed instruction
system.cpu0.op_class::IntAlu                        0                       # Class of executed instruction
system.cpu0.op_class::IntMult                       0                       # Class of executed instruction
system.cpu0.op_class::IntDiv                        0                       # Class of executed instruction
system.cpu0.op_class::FloatAdd                      0                       # Class of executed instruction
system.cpu0.op_class::FloatCmp                      0                       # Class of executed instruction
system.cpu0.op_class::FloatCvt                      0                       # Class of executed instruction
system.cpu0.op_class::FloatMult                     0                       # Class of executed instruction
system.cpu0.op_class::FloatDiv                      0                       # Class of executed instruction
system.cpu0.op_class::FloatSqrt                     0                       # Class of executed instruction
system.cpu0.op_class::SimdAdd                       0                       # Class of executed instruction
system.cpu0.op_class::SimdAddAcc                    0                       # Class of executed instruction
system.cpu0.op_class::SimdAlu                       0                       # Class of executed instruction
system.cpu0.op_class::SimdCmp                       0                       # Class of executed instruction
system.cpu0.op_class::SimdCvt                       0                       # Class of executed instruction
system.cpu0.op_class::SimdMisc                      0                       # Class of executed instruction
system.cpu0.op_class::SimdMult                      0                       # Class of executed instruction
system.cpu0.op_class::SimdMultAcc                   0                       # Class of executed instruction
system.cpu0.op_class::SimdShift                     0                       # Class of executed instruction
system.cpu0.op_class::SimdShiftAcc                  0                       # Class of executed instruction
system.cpu0.op_class::SimdSqrt                      0                       # Class of executed instruction
system.cpu0.op_class::SimdFloatAdd                  0                       # Class of executed instruction
system.cpu0.op_class::SimdFloatAlu                  0                       # Class of executed instruction
system.cpu0.op_class::SimdFloatCmp                  0                       # Class of executed instruction
system.cpu0.op_class::SimdFloatCvt                  0                       # Class of executed instruction
system.cpu0.op_class::SimdFloatDiv                  0                       # Class of executed instruction
system.cpu0.op_class::SimdFloatMisc                 0                       # Class of executed instruction
system.cpu0.op_class::SimdFloatMult                 0                       # Class of executed instruction
system.cpu0.op_class::SimdFloatMultAcc              0                       # Class of executed instruction
system.cpu0.op_class::SimdFloatSqrt                 0                       # Class of executed instruction
system.cpu0.op_class::MemRead                       0                       # Class of executed instruction
system.cpu0.op_class::MemWrite                      0                       # Class of executed instruction
system.cpu0.op_class::IprAccess                     0                       # Class of executed instruction
system.cpu0.op_class::InstPrefetch                  0                       # Class of executed instruction
system.cpu0.op_class::total                         0                       # Class of executed instruction
system.cpu0.kern.inst.arm                           0                       # number of arm instructions executed
system.cpu0.kern.inst.quiesce                       3                       # number of quiesce instructions executed
system.cpu0.kern.inst.hwrei                       597                       # number of hwrei instructions executed
system.cpu0.kern.ipl_count::0                     168     46.28%     46.28% # number of times we switched to this ipl
system.cpu0.kern.ipl_count::22                      1      0.28%     46.56% # number of times we switched to this ipl
system.cpu0.kern.ipl_count::30                      1      0.28%     46.83% # number of times we switched to this ipl
system.cpu0.kern.ipl_count::31                    193     53.17%    100.00% # number of times we switched to this ipl
system.cpu0.kern.ipl_count::total                 363                       # number of times we switched to this ipl
system.cpu0.kern.ipl_good::0                      168     49.85%     49.85% # number of times we switched to this ipl from a different ipl
system.cpu0.kern.ipl_good::22                       1      0.30%     50.15% # number of times we switched to this ipl from a different ipl
system.cpu0.kern.ipl_good::30                       1      0.30%     50.45% # number of times we switched to this ipl from a different ipl
system.cpu0.kern.ipl_good::31                     167     49.55%    100.00% # number of times we switched to this ipl from a different ipl
system.cpu0.kern.ipl_good::total                  337                       # number of times we switched to this ipl from a different ipl
system.cpu0.kern.ipl_ticks::0               489021000     88.26%     88.26% # number of cycles we spent at this ipl
system.cpu0.kern.ipl_ticks::22                 962000      0.17%     88.44% # number of cycles we spent at this ipl
system.cpu0.kern.ipl_ticks::30                1693500      0.31%     88.74% # number of cycles we spent at this ipl
system.cpu0.kern.ipl_ticks::31               62368000     11.26%    100.00% # number of cycles we spent at this ipl
system.cpu0.kern.ipl_ticks::total           554044500                       # number of cycles we spent at this ipl
system.cpu0.kern.ipl_used::0                        1                       # fraction of swpipl calls that actually changed the ipl
system.cpu0.kern.ipl_used::22                       1                       # fraction of swpipl calls that actually changed the ipl
system.cpu0.kern.ipl_used::30                       1                       # fraction of swpipl calls that actually changed the ipl
system.cpu0.kern.ipl_used::31                0.865285                       # fraction of swpipl calls that actually changed the ipl
system.cpu0.kern.ipl_used::total             0.928375                       # fraction of swpipl calls that actually changed the ipl
system.cpu0.kern.syscall::2                         1     33.33%     33.33% # number of syscalls executed
system.cpu0.kern.syscall::3                         1     33.33%     66.67% # number of syscalls executed
system.cpu0.kern.syscall::19                        1     33.33%    100.00% # number of syscalls executed
system.cpu0.kern.syscall::total                     3                       # number of syscalls executed
system.cpu0.kern.callpal::wripir                    1      0.26%      0.26% # number of callpals executed
system.cpu0.kern.callpal::swpctx                   12      3.08%      3.34% # number of callpals executed
system.cpu0.kern.callpal::tbi                       2      0.51%      3.86% # number of callpals executed
system.cpu0.kern.callpal::swpipl                  342     87.92%     91.77% # number of callpals executed
system.cpu0.kern.callpal::rdps                      2      0.51%     92.29% # number of callpals executed
system.cpu0.kern.callpal::rdusp                     1      0.26%     92.54% # number of callpals executed
system.cpu0.kern.callpal::rti                      19      4.88%     97.43% # number of callpals executed
system.cpu0.kern.callpal::callsys                   9      2.31%     99.74% # number of callpals executed
system.cpu0.kern.callpal::imb                       1      0.26%    100.00% # number of callpals executed
system.cpu0.kern.callpal::total                   389                       # number of callpals executed
system.cpu0.kern.mode_switch::kernel               32                       # number of protection mode switches
system.cpu0.kern.mode_switch::user                 17                       # number of protection mode switches
system.cpu0.kern.mode_switch::idle                  0                       # number of protection mode switches
system.cpu0.kern.mode_good::kernel                 18                      
system.cpu0.kern.mode_good::user                   17                      
system.cpu0.kern.mode_good::idle                    0                      
system.cpu0.kern.mode_switch_good::kernel     0.562500                       # fraction of useful protection mode switches
system.cpu0.kern.mode_switch_good::user             1                       # fraction of useful protection mode switches
system.cpu0.kern.mode_switch_good::idle           nan                       # fraction of useful protection mode switches
system.cpu0.kern.mode_switch_good::total     0.714286                       # fraction of useful protection mode switches
system.cpu0.kern.mode_ticks::kernel         240221000     73.80%     73.80% # number of ticks spent at the given mode
system.cpu0.kern.mode_ticks::user            85301500     26.20%    100.00% # number of ticks spent at the given mode
system.cpu0.kern.mode_ticks::idle                   0      0.00%    100.00% # number of ticks spent at the given mode
system.cpu0.kern.swap_context                      12                       # number of times the context was actually changed
system.cpu0.dcache.tags.replacements             4847                       # number of replacements
system.cpu0.dcache.tags.tagsinuse          503.492598                       # Cycle average of tags in use
system.cpu0.dcache.tags.total_refs              55974                       # Total number of references to valid blocks.
system.cpu0.dcache.tags.sampled_refs             4847                       # Sample count of references to valid blocks.
system.cpu0.dcache.tags.avg_refs            11.548174                       # Average number of references to valid blocks.
system.cpu0.dcache.tags.warmup_cycle                0                       # Cycle when the warmup percentage was hit.
system.cpu0.dcache.tags.occ_blocks::cpu0.data    24.262681                       # Average occupied blocks per requestor
system.cpu0.dcache.tags.occ_blocks::switch_cpus0.data   479.229918                       # Average occupied blocks per requestor
system.cpu0.dcache.tags.occ_percent::cpu0.data     0.047388                       # Average percentage of cache occupancy
system.cpu0.dcache.tags.occ_percent::switch_cpus0.data     0.935996                       # Average percentage of cache occupancy
system.cpu0.dcache.tags.occ_percent::total     0.983384                       # Average percentage of cache occupancy
system.cpu0.dcache.tags.occ_task_id_blocks::1024          498                       # Occupied blocks per task id
system.cpu0.dcache.tags.age_task_id_blocks_1024::2          490                       # Occupied blocks per task id
system.cpu0.dcache.tags.age_task_id_blocks_1024::3            8                       # Occupied blocks per task id
system.cpu0.dcache.tags.occ_task_id_percent::1024     0.972656                       # Percentage of cache occupancy per task id
system.cpu0.dcache.tags.tag_accesses           290956                       # Number of tag accesses
system.cpu0.dcache.tags.data_accesses          290956                       # Number of data accesses
system.cpu0.dcache.ReadReq_hits::switch_cpus0.data        33435                       # number of ReadReq hits
system.cpu0.dcache.ReadReq_hits::total          33435                       # number of ReadReq hits
system.cpu0.dcache.WriteReq_hits::switch_cpus0.data        13621                       # number of WriteReq hits
system.cpu0.dcache.WriteReq_hits::total         13621                       # number of WriteReq hits
system.cpu0.dcache.LoadLockedReq_hits::switch_cpus0.data          536                       # number of LoadLockedReq hits
system.cpu0.dcache.LoadLockedReq_hits::total          536                       # number of LoadLockedReq hits
system.cpu0.dcache.StoreCondReq_hits::switch_cpus0.data          596                       # number of StoreCondReq hits
system.cpu0.dcache.StoreCondReq_hits::total          596                       # number of StoreCondReq hits
system.cpu0.dcache.demand_hits::switch_cpus0.data        47056                       # number of demand (read+write) hits
system.cpu0.dcache.demand_hits::total           47056                       # number of demand (read+write) hits
system.cpu0.dcache.overall_hits::switch_cpus0.data        47056                       # number of overall hits
system.cpu0.dcache.overall_hits::total          47056                       # number of overall hits
system.cpu0.dcache.ReadReq_misses::switch_cpus0.data         8687                       # number of ReadReq misses
system.cpu0.dcache.ReadReq_misses::total         8687                       # number of ReadReq misses
system.cpu0.dcache.WriteReq_misses::switch_cpus0.data        14461                       # number of WriteReq misses
system.cpu0.dcache.WriteReq_misses::total        14461                       # number of WriteReq misses
system.cpu0.dcache.LoadLockedReq_misses::switch_cpus0.data          155                       # number of LoadLockedReq misses
system.cpu0.dcache.LoadLockedReq_misses::total          155                       # number of LoadLockedReq misses
system.cpu0.dcache.StoreCondReq_misses::switch_cpus0.data           24                       # number of StoreCondReq misses
system.cpu0.dcache.StoreCondReq_misses::total           24                       # number of StoreCondReq misses
system.cpu0.dcache.demand_misses::switch_cpus0.data        23148                       # number of demand (read+write) misses
system.cpu0.dcache.demand_misses::total         23148                       # number of demand (read+write) misses
system.cpu0.dcache.overall_misses::switch_cpus0.data        23148                       # number of overall misses
system.cpu0.dcache.overall_misses::total        23148                       # number of overall misses
system.cpu0.dcache.ReadReq_miss_latency::switch_cpus0.data    532564186                       # number of ReadReq miss cycles
system.cpu0.dcache.ReadReq_miss_latency::total    532564186                       # number of ReadReq miss cycles
system.cpu0.dcache.WriteReq_miss_latency::switch_cpus0.data   1080425139                       # number of WriteReq miss cycles
system.cpu0.dcache.WriteReq_miss_latency::total   1080425139                       # number of WriteReq miss cycles
system.cpu0.dcache.LoadLockedReq_miss_latency::switch_cpus0.data     10689247                       # number of LoadLockedReq miss cycles
system.cpu0.dcache.LoadLockedReq_miss_latency::total     10689247                       # number of LoadLockedReq miss cycles
system.cpu0.dcache.StoreCondReq_miss_latency::switch_cpus0.data       240504                       # number of StoreCondReq miss cycles
system.cpu0.dcache.StoreCondReq_miss_latency::total       240504                       # number of StoreCondReq miss cycles
system.cpu0.dcache.StoreCondFailReq_miss_latency::switch_cpus0.data        39500                       # number of StoreCondFailReq miss cycles
system.cpu0.dcache.StoreCondFailReq_miss_latency::total        39500                       # number of StoreCondFailReq miss cycles
system.cpu0.dcache.demand_miss_latency::switch_cpus0.data   1612989325                       # number of demand (read+write) miss cycles
system.cpu0.dcache.demand_miss_latency::total   1612989325                       # number of demand (read+write) miss cycles
system.cpu0.dcache.overall_miss_latency::switch_cpus0.data   1612989325                       # number of overall miss cycles
system.cpu0.dcache.overall_miss_latency::total   1612989325                       # number of overall miss cycles
system.cpu0.dcache.ReadReq_accesses::switch_cpus0.data        42122                       # number of ReadReq accesses(hits+misses)
system.cpu0.dcache.ReadReq_accesses::total        42122                       # number of ReadReq accesses(hits+misses)
system.cpu0.dcache.WriteReq_accesses::switch_cpus0.data        28082                       # number of WriteReq accesses(hits+misses)
system.cpu0.dcache.WriteReq_accesses::total        28082                       # number of WriteReq accesses(hits+misses)
system.cpu0.dcache.LoadLockedReq_accesses::switch_cpus0.data          691                       # number of LoadLockedReq accesses(hits+misses)
system.cpu0.dcache.LoadLockedReq_accesses::total          691                       # number of LoadLockedReq accesses(hits+misses)
system.cpu0.dcache.StoreCondReq_accesses::switch_cpus0.data          620                       # number of StoreCondReq accesses(hits+misses)
system.cpu0.dcache.StoreCondReq_accesses::total          620                       # number of StoreCondReq accesses(hits+misses)
system.cpu0.dcache.demand_accesses::switch_cpus0.data        70204                       # number of demand (read+write) accesses
system.cpu0.dcache.demand_accesses::total        70204                       # number of demand (read+write) accesses
system.cpu0.dcache.overall_accesses::switch_cpus0.data        70204                       # number of overall (read+write) accesses
system.cpu0.dcache.overall_accesses::total        70204                       # number of overall (read+write) accesses
system.cpu0.dcache.ReadReq_miss_rate::switch_cpus0.data     0.206234                       # miss rate for ReadReq accesses
system.cpu0.dcache.ReadReq_miss_rate::total     0.206234                       # miss rate for ReadReq accesses
system.cpu0.dcache.WriteReq_miss_rate::switch_cpus0.data     0.514956                       # miss rate for WriteReq accesses
system.cpu0.dcache.WriteReq_miss_rate::total     0.514956                       # miss rate for WriteReq accesses
system.cpu0.dcache.LoadLockedReq_miss_rate::switch_cpus0.data     0.224313                       # miss rate for LoadLockedReq accesses
system.cpu0.dcache.LoadLockedReq_miss_rate::total     0.224313                       # miss rate for LoadLockedReq accesses
system.cpu0.dcache.StoreCondReq_miss_rate::switch_cpus0.data     0.038710                       # miss rate for StoreCondReq accesses
system.cpu0.dcache.StoreCondReq_miss_rate::total     0.038710                       # miss rate for StoreCondReq accesses
system.cpu0.dcache.demand_miss_rate::switch_cpus0.data     0.329725                       # miss rate for demand accesses
system.cpu0.dcache.demand_miss_rate::total     0.329725                       # miss rate for demand accesses
system.cpu0.dcache.overall_miss_rate::switch_cpus0.data     0.329725                       # miss rate for overall accesses
system.cpu0.dcache.overall_miss_rate::total     0.329725                       # miss rate for overall accesses
system.cpu0.dcache.ReadReq_avg_miss_latency::switch_cpus0.data 61305.880741                       # average ReadReq miss latency
system.cpu0.dcache.ReadReq_avg_miss_latency::total 61305.880741                       # average ReadReq miss latency
system.cpu0.dcache.WriteReq_avg_miss_latency::switch_cpus0.data 74713.030842                       # average WriteReq miss latency
system.cpu0.dcache.WriteReq_avg_miss_latency::total 74713.030842                       # average WriteReq miss latency
system.cpu0.dcache.LoadLockedReq_avg_miss_latency::switch_cpus0.data 68962.883871                       # average LoadLockedReq miss latency
system.cpu0.dcache.LoadLockedReq_avg_miss_latency::total 68962.883871                       # average LoadLockedReq miss latency
system.cpu0.dcache.StoreCondReq_avg_miss_latency::switch_cpus0.data        10021                       # average StoreCondReq miss latency
system.cpu0.dcache.StoreCondReq_avg_miss_latency::total        10021                       # average StoreCondReq miss latency
system.cpu0.dcache.StoreCondFailReq_avg_miss_latency::switch_cpus0.data          inf                       # average StoreCondFailReq miss latency
system.cpu0.dcache.StoreCondFailReq_avg_miss_latency::total          inf                       # average StoreCondFailReq miss latency
system.cpu0.dcache.demand_avg_miss_latency::switch_cpus0.data 69681.584802                       # average overall miss latency
system.cpu0.dcache.demand_avg_miss_latency::total 69681.584802                       # average overall miss latency
system.cpu0.dcache.overall_avg_miss_latency::switch_cpus0.data 69681.584802                       # average overall miss latency
system.cpu0.dcache.overall_avg_miss_latency::total 69681.584802                       # average overall miss latency
system.cpu0.dcache.blocked_cycles::no_mshrs        94796                       # number of cycles access was blocked
system.cpu0.dcache.blocked_cycles::no_targets          141                       # number of cycles access was blocked
system.cpu0.dcache.blocked::no_mshrs             2047                       # number of cycles access was blocked
system.cpu0.dcache.blocked::no_targets              3                       # number of cycles access was blocked
system.cpu0.dcache.avg_blocked_cycles::no_mshrs    46.309722                       # average number of cycles each access was blocked
system.cpu0.dcache.avg_blocked_cycles::no_targets           47                       # average number of cycles each access was blocked
system.cpu0.dcache.fast_writes                      0                       # number of fast writes performed
system.cpu0.dcache.cache_copies                     0                       # number of cache copies performed
system.cpu0.dcache.writebacks::writebacks         2798                       # number of writebacks
system.cpu0.dcache.writebacks::total             2798                       # number of writebacks
system.cpu0.dcache.ReadReq_mshr_hits::switch_cpus0.data         5899                       # number of ReadReq MSHR hits
system.cpu0.dcache.ReadReq_mshr_hits::total         5899                       # number of ReadReq MSHR hits
system.cpu0.dcache.WriteReq_mshr_hits::switch_cpus0.data        12386                       # number of WriteReq MSHR hits
system.cpu0.dcache.WriteReq_mshr_hits::total        12386                       # number of WriteReq MSHR hits
system.cpu0.dcache.LoadLockedReq_mshr_hits::switch_cpus0.data           57                       # number of LoadLockedReq MSHR hits
system.cpu0.dcache.LoadLockedReq_mshr_hits::total           57                       # number of LoadLockedReq MSHR hits
system.cpu0.dcache.demand_mshr_hits::switch_cpus0.data        18285                       # number of demand (read+write) MSHR hits
system.cpu0.dcache.demand_mshr_hits::total        18285                       # number of demand (read+write) MSHR hits
system.cpu0.dcache.overall_mshr_hits::switch_cpus0.data        18285                       # number of overall MSHR hits
system.cpu0.dcache.overall_mshr_hits::total        18285                       # number of overall MSHR hits
system.cpu0.dcache.ReadReq_mshr_misses::switch_cpus0.data         2788                       # number of ReadReq MSHR misses
system.cpu0.dcache.ReadReq_mshr_misses::total         2788                       # number of ReadReq MSHR misses
system.cpu0.dcache.WriteReq_mshr_misses::switch_cpus0.data         2075                       # number of WriteReq MSHR misses
system.cpu0.dcache.WriteReq_mshr_misses::total         2075                       # number of WriteReq MSHR misses
system.cpu0.dcache.LoadLockedReq_mshr_misses::switch_cpus0.data           98                       # number of LoadLockedReq MSHR misses
system.cpu0.dcache.LoadLockedReq_mshr_misses::total           98                       # number of LoadLockedReq MSHR misses
system.cpu0.dcache.StoreCondReq_mshr_misses::switch_cpus0.data           24                       # number of StoreCondReq MSHR misses
system.cpu0.dcache.StoreCondReq_mshr_misses::total           24                       # number of StoreCondReq MSHR misses
system.cpu0.dcache.demand_mshr_misses::switch_cpus0.data         4863                       # number of demand (read+write) MSHR misses
system.cpu0.dcache.demand_mshr_misses::total         4863                       # number of demand (read+write) MSHR misses
system.cpu0.dcache.overall_mshr_misses::switch_cpus0.data         4863                       # number of overall MSHR misses
system.cpu0.dcache.overall_mshr_misses::total         4863                       # number of overall MSHR misses
system.cpu0.dcache.WriteReq_mshr_uncacheable::switch_cpus0.data            3                       # number of WriteReq MSHR uncacheable
system.cpu0.dcache.WriteReq_mshr_uncacheable::total            3                       # number of WriteReq MSHR uncacheable
system.cpu0.dcache.overall_mshr_uncacheable_misses::switch_cpus0.data            3                       # number of overall MSHR uncacheable misses
system.cpu0.dcache.overall_mshr_uncacheable_misses::total            3                       # number of overall MSHR uncacheable misses
system.cpu0.dcache.ReadReq_mshr_miss_latency::switch_cpus0.data    196875279                       # number of ReadReq MSHR miss cycles
system.cpu0.dcache.ReadReq_mshr_miss_latency::total    196875279                       # number of ReadReq MSHR miss cycles
system.cpu0.dcache.WriteReq_mshr_miss_latency::switch_cpus0.data    172467762                       # number of WriteReq MSHR miss cycles
system.cpu0.dcache.WriteReq_mshr_miss_latency::total    172467762                       # number of WriteReq MSHR miss cycles
system.cpu0.dcache.LoadLockedReq_mshr_miss_latency::switch_cpus0.data      7281503                       # number of LoadLockedReq MSHR miss cycles
system.cpu0.dcache.LoadLockedReq_mshr_miss_latency::total      7281503                       # number of LoadLockedReq MSHR miss cycles
system.cpu0.dcache.StoreCondReq_mshr_miss_latency::switch_cpus0.data       205996                       # number of StoreCondReq MSHR miss cycles
system.cpu0.dcache.StoreCondReq_mshr_miss_latency::total       205996                       # number of StoreCondReq MSHR miss cycles
system.cpu0.dcache.StoreCondFailReq_mshr_miss_latency::switch_cpus0.data        38000                       # number of StoreCondFailReq MSHR miss cycles
system.cpu0.dcache.StoreCondFailReq_mshr_miss_latency::total        38000                       # number of StoreCondFailReq MSHR miss cycles
system.cpu0.dcache.demand_mshr_miss_latency::switch_cpus0.data    369343041                       # number of demand (read+write) MSHR miss cycles
system.cpu0.dcache.demand_mshr_miss_latency::total    369343041                       # number of demand (read+write) MSHR miss cycles
system.cpu0.dcache.overall_mshr_miss_latency::switch_cpus0.data    369343041                       # number of overall MSHR miss cycles
system.cpu0.dcache.overall_mshr_miss_latency::total    369343041                       # number of overall MSHR miss cycles
system.cpu0.dcache.WriteReq_mshr_uncacheable_latency::switch_cpus0.data       671500                       # number of WriteReq MSHR uncacheable cycles
system.cpu0.dcache.WriteReq_mshr_uncacheable_latency::total       671500                       # number of WriteReq MSHR uncacheable cycles
system.cpu0.dcache.overall_mshr_uncacheable_latency::switch_cpus0.data       671500                       # number of overall MSHR uncacheable cycles
system.cpu0.dcache.overall_mshr_uncacheable_latency::total       671500                       # number of overall MSHR uncacheable cycles
system.cpu0.dcache.ReadReq_mshr_miss_rate::switch_cpus0.data     0.066189                       # mshr miss rate for ReadReq accesses
system.cpu0.dcache.ReadReq_mshr_miss_rate::total     0.066189                       # mshr miss rate for ReadReq accesses
system.cpu0.dcache.WriteReq_mshr_miss_rate::switch_cpus0.data     0.073891                       # mshr miss rate for WriteReq accesses
system.cpu0.dcache.WriteReq_mshr_miss_rate::total     0.073891                       # mshr miss rate for WriteReq accesses
system.cpu0.dcache.LoadLockedReq_mshr_miss_rate::switch_cpus0.data     0.141823                       # mshr miss rate for LoadLockedReq accesses
system.cpu0.dcache.LoadLockedReq_mshr_miss_rate::total     0.141823                       # mshr miss rate for LoadLockedReq accesses
system.cpu0.dcache.StoreCondReq_mshr_miss_rate::switch_cpus0.data     0.038710                       # mshr miss rate for StoreCondReq accesses
system.cpu0.dcache.StoreCondReq_mshr_miss_rate::total     0.038710                       # mshr miss rate for StoreCondReq accesses
system.cpu0.dcache.demand_mshr_miss_rate::switch_cpus0.data     0.069270                       # mshr miss rate for demand accesses
system.cpu0.dcache.demand_mshr_miss_rate::total     0.069270                       # mshr miss rate for demand accesses
system.cpu0.dcache.overall_mshr_miss_rate::switch_cpus0.data     0.069270                       # mshr miss rate for overall accesses
system.cpu0.dcache.overall_mshr_miss_rate::total     0.069270                       # mshr miss rate for overall accesses
system.cpu0.dcache.ReadReq_avg_mshr_miss_latency::switch_cpus0.data 70615.236370                       # average ReadReq mshr miss latency
system.cpu0.dcache.ReadReq_avg_mshr_miss_latency::total 70615.236370                       # average ReadReq mshr miss latency
system.cpu0.dcache.WriteReq_avg_mshr_miss_latency::switch_cpus0.data 83116.993735                       # average WriteReq mshr miss latency
system.cpu0.dcache.WriteReq_avg_mshr_miss_latency::total 83116.993735                       # average WriteReq mshr miss latency
system.cpu0.dcache.LoadLockedReq_avg_mshr_miss_latency::switch_cpus0.data 74301.051020                       # average LoadLockedReq mshr miss latency
system.cpu0.dcache.LoadLockedReq_avg_mshr_miss_latency::total 74301.051020                       # average LoadLockedReq mshr miss latency
system.cpu0.dcache.StoreCondReq_avg_mshr_miss_latency::switch_cpus0.data  8583.166667                       # average StoreCondReq mshr miss latency
system.cpu0.dcache.StoreCondReq_avg_mshr_miss_latency::total  8583.166667                       # average StoreCondReq mshr miss latency
system.cpu0.dcache.StoreCondFailReq_avg_mshr_miss_latency::switch_cpus0.data          inf                       # average StoreCondFailReq mshr miss latency
system.cpu0.dcache.StoreCondFailReq_avg_mshr_miss_latency::total          inf                       # average StoreCondFailReq mshr miss latency
system.cpu0.dcache.demand_avg_mshr_miss_latency::switch_cpus0.data 75949.628007                       # average overall mshr miss latency
system.cpu0.dcache.demand_avg_mshr_miss_latency::total 75949.628007                       # average overall mshr miss latency
system.cpu0.dcache.overall_avg_mshr_miss_latency::switch_cpus0.data 75949.628007                       # average overall mshr miss latency
system.cpu0.dcache.overall_avg_mshr_miss_latency::total 75949.628007                       # average overall mshr miss latency
system.cpu0.dcache.WriteReq_avg_mshr_uncacheable_latency::switch_cpus0.data 223833.333333                       # average WriteReq mshr uncacheable latency
system.cpu0.dcache.WriteReq_avg_mshr_uncacheable_latency::total 223833.333333                       # average WriteReq mshr uncacheable latency
system.cpu0.dcache.overall_avg_mshr_uncacheable_latency::switch_cpus0.data 223833.333333                       # average overall mshr uncacheable latency
system.cpu0.dcache.overall_avg_mshr_uncacheable_latency::total 223833.333333                       # average overall mshr uncacheable latency
system.cpu0.dcache.no_allocate_misses               0                       # Number of misses that were no-allocate
system.cpu0.icache.tags.replacements             3499                       # number of replacements
system.cpu0.icache.tags.tagsinuse          511.998935                       # Cycle average of tags in use
system.cpu0.icache.tags.total_refs             261287                       # Total number of references to valid blocks.
system.cpu0.icache.tags.sampled_refs             3499                       # Sample count of references to valid blocks.
system.cpu0.icache.tags.avg_refs            74.674764                       # Average number of references to valid blocks.
system.cpu0.icache.tags.warmup_cycle                0                       # Cycle when the warmup percentage was hit.
system.cpu0.icache.tags.occ_blocks::cpu0.inst    20.239697                       # Average occupied blocks per requestor
system.cpu0.icache.tags.occ_blocks::switch_cpus0.inst   491.759238                       # Average occupied blocks per requestor
system.cpu0.icache.tags.occ_percent::cpu0.inst     0.039531                       # Average percentage of cache occupancy
system.cpu0.icache.tags.occ_percent::switch_cpus0.inst     0.960467                       # Average percentage of cache occupancy
system.cpu0.icache.tags.occ_percent::total     0.999998                       # Average percentage of cache occupancy
system.cpu0.icache.tags.occ_task_id_blocks::1024          512                       # Occupied blocks per task id
system.cpu0.icache.tags.age_task_id_blocks_1024::2          471                       # Occupied blocks per task id
system.cpu0.icache.tags.age_task_id_blocks_1024::3           41                       # Occupied blocks per task id
system.cpu0.icache.tags.occ_task_id_percent::1024            1                       # Percentage of cache occupancy per task id
system.cpu0.icache.tags.tag_accesses            87088                       # Number of tag accesses
system.cpu0.icache.tags.data_accesses           87088                       # Number of data accesses
system.cpu0.icache.ReadReq_hits::switch_cpus0.inst        37502                       # number of ReadReq hits
system.cpu0.icache.ReadReq_hits::total          37502                       # number of ReadReq hits
system.cpu0.icache.demand_hits::switch_cpus0.inst        37502                       # number of demand (read+write) hits
system.cpu0.icache.demand_hits::total           37502                       # number of demand (read+write) hits
system.cpu0.icache.overall_hits::switch_cpus0.inst        37502                       # number of overall hits
system.cpu0.icache.overall_hits::total          37502                       # number of overall hits
system.cpu0.icache.ReadReq_misses::switch_cpus0.inst         4292                       # number of ReadReq misses
system.cpu0.icache.ReadReq_misses::total         4292                       # number of ReadReq misses
system.cpu0.icache.demand_misses::switch_cpus0.inst         4292                       # number of demand (read+write) misses
system.cpu0.icache.demand_misses::total          4292                       # number of demand (read+write) misses
system.cpu0.icache.overall_misses::switch_cpus0.inst         4292                       # number of overall misses
[...]
system.switch_cpus3.int_regfile_writes         118097                       # number of integer regfile writes
system.switch_cpus3.fp_regfile_reads              154                       # number of floating regfile reads
system.switch_cpus3.fp_regfile_writes             173                       # number of floating regfile writes
system.switch_cpus3.misc_regfile_reads          17050                       # number of misc regfile reads
system.switch_cpus3.misc_regfile_writes          4683                       # number of misc regfile writes
system.tol2bus.trans_dist::ReadReq              43414                       # Transaction distribution
system.tol2bus.trans_dist::ReadResp             43413                       # Transaction distribution
system.tol2bus.trans_dist::WriteReq              2590                       # Transaction distribution
system.tol2bus.trans_dist::WriteResp             2590                       # Transaction distribution
system.tol2bus.trans_dist::Writeback            12779                       # Transaction distribution
system.tol2bus.trans_dist::UpgradeReq             866                       # Transaction distribution
system.tol2bus.trans_dist::SCUpgradeReq           362                       # Transaction distribution
system.tol2bus.trans_dist::UpgradeResp           1228                       # Transaction distribution
system.tol2bus.trans_dist::SCUpgradeFailReq            1                       # Transaction distribution
system.tol2bus.trans_dist::UpgradeFailResp            1                       # Transaction distribution
system.tol2bus.trans_dist::ReadExReq            10028                       # Transaction distribution
system.tol2bus.trans_dist::ReadExResp           10028                       # Transaction distribution
system.tol2bus.trans_dist::BadAddressError            1                       # Transaction distribution
system.tol2bus.pkt_count_system.cpu0.icache.mem_side::system.l2.cpu_side        15504                       # Packet count per connected master and slave (bytes)
system.tol2bus.pkt_count_system.cpu0.dcache.mem_side::system.l2.cpu_side        53006                       # Packet count per connected master and slave (bytes)
system.tol2bus.pkt_count_system.cpu1.icache.mem_side::system.l2.cpu_side          340                       # Packet count per connected master and slave (bytes)
system.tol2bus.pkt_count_system.cpu1.dcache.mem_side::system.l2.cpu_side          191                       # Packet count per connected master and slave (bytes)
system.tol2bus.pkt_count_system.cpu2.icache.mem_side::system.l2.cpu_side        23297                       # Packet count per connected master and slave (bytes)
system.tol2bus.pkt_count_system.cpu2.dcache.mem_side::system.l2.cpu_side        21691                       # Packet count per connected master and slave (bytes)
system.tol2bus.pkt_count_system.cpu3.icache.mem_side::system.l2.cpu_side         4558                       # Packet count per connected master and slave (bytes)
system.tol2bus.pkt_count_system.cpu3.dcache.mem_side::system.l2.cpu_side         6791                       # Packet count per connected master and slave (bytes)
system.tol2bus.pkt_count::total                125378                       # Packet count per connected master and slave (bytes)
system.tol2bus.pkt_size_system.cpu0.icache.mem_side::system.l2.cpu_side       495936                       # Cumulative packet size per connected master and slave (bytes)
system.tol2bus.pkt_size_system.cpu0.dcache.mem_side::system.l2.cpu_side      1292266                       # Cumulative packet size per connected master and slave (bytes)
system.tol2bus.pkt_size_system.cpu1.icache.mem_side::system.l2.cpu_side        10880                       # Cumulative packet size per connected master and slave (bytes)
system.tol2bus.pkt_size_system.cpu1.dcache.mem_side::system.l2.cpu_side         5224                       # Cumulative packet size per connected master and slave (bytes)
system.tol2bus.pkt_size_system.cpu2.icache.mem_side::system.l2.cpu_side       745472                       # Cumulative packet size per connected master and slave (bytes)
system.tol2bus.pkt_size_system.cpu2.dcache.mem_side::system.l2.cpu_side       773426                       # Cumulative packet size per connected master and slave (bytes)
system.tol2bus.pkt_size_system.cpu3.icache.mem_side::system.l2.cpu_side       145856                       # Cumulative packet size per connected master and slave (bytes)
system.tol2bus.pkt_size_system.cpu3.dcache.mem_side::system.l2.cpu_side       242296                       # Cumulative packet size per connected master and slave (bytes)
system.tol2bus.pkt_size::total                3711356                       # Cumulative packet size per connected master and slave (bytes)
system.tol2bus.snoops                            1923                       # Total snoops (count)
system.tol2bus.snoop_fanout::samples            70040                       # Request fanout histogram
system.tol2bus.snoop_fanout::mean                   7                       # Request fanout histogram
system.tol2bus.snoop_fanout::stdev                  0                       # Request fanout histogram
system.tol2bus.snoop_fanout::underflows             0      0.00%      0.00% # Request fanout histogram
system.tol2bus.snoop_fanout::0                      0      0.00%      0.00% # Request fanout histogram
system.tol2bus.snoop_fanout::1                      0      0.00%      0.00% # Request fanout histogram
system.tol2bus.snoop_fanout::2                      0      0.00%      0.00% # Request fanout histogram
system.tol2bus.snoop_fanout::3                      0      0.00%      0.00% # Request fanout histogram
system.tol2bus.snoop_fanout::4                      0      0.00%      0.00% # Request fanout histogram
system.tol2bus.snoop_fanout::5                      0      0.00%      0.00% # Request fanout histogram
system.tol2bus.snoop_fanout::6                      0      0.00%      0.00% # Request fanout histogram
system.tol2bus.snoop_fanout::7                  70040    100.00%    100.00% # Request fanout histogram
system.tol2bus.snoop_fanout::8                      0      0.00%    100.00% # Request fanout histogram
system.tol2bus.snoop_fanout::overflows              0      0.00%    100.00% # Request fanout histogram
system.tol2bus.snoop_fanout::min_value              7                       # Request fanout histogram
system.tol2bus.snoop_fanout::max_value              7                       # Request fanout histogram
system.tol2bus.snoop_fanout::total              70040                       # Request fanout histogram
system.tol2bus.reqLayer0.occupancy           49094998                       # Layer occupancy (ticks)
system.tol2bus.reqLayer0.utilization              1.3                       # Layer utilization (%)
system.tol2bus.respLayer0.occupancy          12468460                       # Layer occupancy (ticks)
system.tol2bus.respLayer0.utilization             0.3                       # Layer utilization (%)
system.tol2bus.respLayer1.occupancy          29480818                       # Layer occupancy (ticks)
system.tol2bus.respLayer1.utilization             0.8                       # Layer utilization (%)
system.tol2bus.respLayer2.occupancy            275194                       # Layer occupancy (ticks)
system.tol2bus.respLayer2.utilization             0.0                       # Layer utilization (%)
system.tol2bus.respLayer3.occupancy            131490                       # Layer occupancy (ticks)
system.tol2bus.respLayer3.utilization             0.0                       # Layer utilization (%)
system.tol2bus.respLayer4.occupancy          18537176                       # Layer occupancy (ticks)
system.tol2bus.respLayer4.utilization             0.5                       # Layer utilization (%)
system.tol2bus.respLayer5.occupancy          14779402                       # Layer occupancy (ticks)
system.tol2bus.respLayer5.utilization             0.4                       # Layer utilization (%)
system.tol2bus.respLayer6.occupancy           3677903                       # Layer occupancy (ticks)
system.tol2bus.respLayer6.utilization             0.1                       # Layer utilization (%)
system.tol2bus.respLayer7.occupancy           4402760                       # Layer occupancy (ticks)
system.tol2bus.respLayer7.utilization             0.1                       # Layer utilization (%)
system.tsunami.ethernet.descDMAReads                0                       # Number of descriptors the device read w/ DMA
system.tsunami.ethernet.descDMAWrites               0                       # Number of descriptors the device wrote w/ DMA
system.tsunami.ethernet.descDmaReadBytes            0                       # number of descriptor bytes read w/ DMA
system.tsunami.ethernet.descDmaWriteBytes            0                       # number of descriptor bytes write w/ DMA
system.tsunami.ethernet.postedSwi                   0                       # number of software interrupts posted to CPU
system.tsunami.ethernet.coalescedSwi              nan                       # average number of Swi's coalesced into each post
system.tsunami.ethernet.totalSwi                    0                       # total number of Swi written to ISR
system.tsunami.ethernet.postedRxIdle                0                       # number of rxIdle interrupts posted to CPU
system.tsunami.ethernet.coalescedRxIdle           nan                       # average number of RxIdle's coalesced into each post
system.tsunami.ethernet.totalRxIdle                 0                       # total number of RxIdle written to ISR
system.tsunami.ethernet.postedRxOk                  0                       # number of RxOk interrupts posted to CPU
system.tsunami.ethernet.coalescedRxOk             nan                       # average number of RxOk's coalesced into each post
system.tsunami.ethernet.totalRxOk                   0                       # total number of RxOk written to ISR
system.tsunami.ethernet.postedRxDesc                0                       # number of RxDesc interrupts posted to CPU
system.tsunami.ethernet.coalescedRxDesc           nan                       # average number of RxDesc's coalesced into each post
system.tsunami.ethernet.totalRxDesc                 0                       # total number of RxDesc written to ISR
system.tsunami.ethernet.postedTxOk                  0                       # number of TxOk interrupts posted to CPU
system.tsunami.ethernet.coalescedTxOk             nan                       # average number of TxOk's coalesced into each post
system.tsunami.ethernet.totalTxOk                   0                       # total number of TxOk written to ISR
system.tsunami.ethernet.postedTxIdle                0                       # number of TxIdle interrupts posted to CPU
system.tsunami.ethernet.coalescedTxIdle           nan                       # average number of TxIdle's coalesced into each post
system.tsunami.ethernet.totalTxIdle                 0                       # total number of TxIdle written to ISR
system.tsunami.ethernet.postedTxDesc                0                       # number of TxDesc interrupts posted to CPU
system.tsunami.ethernet.coalescedTxDesc           nan                       # average number of TxDesc's coalesced into each post
system.tsunami.ethernet.totalTxDesc                 0                       # total number of TxDesc written to ISR
system.tsunami.ethernet.postedRxOrn                 0                       # number of RxOrn posted to CPU
system.tsunami.ethernet.coalescedRxOrn            nan                       # average number of RxOrn's coalesced into each post
system.tsunami.ethernet.totalRxOrn                  0                       # total number of RxOrn written to ISR
system.tsunami.ethernet.coalescedTotal            nan                       # average number of interrupts coalesced into each post
system.tsunami.ethernet.postedInterrupts            0                       # number of posts to CPU
system.tsunami.ethernet.droppedPackets              0                       # number of packets dropped
system.switch_cpus0.kern.inst.arm                   0                       # number of arm instructions executed
system.switch_cpus0.kern.inst.quiesce               0                       # number of quiesce instructions executed
system.switch_cpus0.kern.inst.hwrei                 0                       # number of hwrei instructions executed
system.switch_cpus0.kern.mode_switch::kernel            0                       # number of protection mode switches
system.switch_cpus0.kern.mode_switch::user            0                       # number of protection mode switches
system.switch_cpus0.kern.mode_switch::idle            0                       # number of protection mode switches
system.switch_cpus0.kern.mode_good::kernel            0                      
system.switch_cpus0.kern.mode_good::user            0                      
system.switch_cpus0.kern.mode_good::idle            0                      
system.switch_cpus0.kern.mode_switch_good::kernel          nan                       # fraction of useful protection mode switches
system.switch_cpus0.kern.mode_switch_good::user          nan                       # fraction of useful protection mode switches
system.switch_cpus0.kern.mode_switch_good::idle          nan                       # fraction of useful protection mode switches
system.switch_cpus0.kern.mode_switch_good::total          nan                       # fraction of useful protection mode switches
system.switch_cpus0.kern.mode_ticks::kernel            0                       # number of ticks spent at the given mode
system.switch_cpus0.kern.mode_ticks::user            0                       # number of ticks spent at the given mode
system.switch_cpus0.kern.mode_ticks::idle            0                       # number of ticks spent at the given mode
system.switch_cpus0.kern.swap_context               0                       # number of times the context was actually changed
system.switch_cpus1.kern.inst.arm                   0                       # number of arm instructions executed
system.switch_cpus1.kern.inst.quiesce               0                       # number of quiesce instructions executed
system.switch_cpus1.kern.inst.hwrei                 0                       # number of hwrei instructions executed
system.switch_cpus1.kern.mode_switch::kernel            0                       # number of protection mode switches
system.switch_cpus1.kern.mode_switch::user            0                       # number of protection mode switches
system.switch_cpus1.kern.mode_switch::idle            0                       # number of protection mode switches
system.switch_cpus1.kern.mode_good::kernel            0                      
system.switch_cpus1.kern.mode_good::user            0                      
system.switch_cpus1.kern.mode_good::idle            0                      
system.switch_cpus1.kern.mode_switch_good::kernel          nan                       # fraction of useful protection mode switches
system.switch_cpus1.kern.mode_switch_good::user          nan                       # fraction of useful protection mode switches
system.switch_cpus1.kern.mode_switch_good::idle          nan                       # fraction of useful protection mode switches
system.switch_cpus1.kern.mode_switch_good::total          nan                       # fraction of useful protection mode switches
system.switch_cpus1.kern.mode_ticks::kernel            0                       # number of ticks spent at the given mode
system.switch_cpus1.kern.mode_ticks::user            0                       # number of ticks spent at the given mode
system.switch_cpus1.kern.mode_ticks::idle            0                       # number of ticks spent at the given mode
system.switch_cpus1.kern.swap_context               0                       # number of times the context was actually changed
system.switch_cpus2.kern.inst.arm                   0                       # number of arm instructions executed
system.switch_cpus2.kern.inst.quiesce               0                       # number of quiesce instructions executed
system.switch_cpus2.kern.inst.hwrei                 0                       # number of hwrei instructions executed
system.switch_cpus2.kern.mode_switch::kernel            0                       # number of protection mode switches
system.switch_cpus2.kern.mode_switch::user            0                       # number of protection mode switches
system.switch_cpus2.kern.mode_switch::idle            0                       # number of protection mode switches
system.switch_cpus2.kern.mode_good::kernel            0                      
system.switch_cpus2.kern.mode_good::user            0                      
system.switch_cpus2.kern.mode_good::idle            0                      
system.switch_cpus2.kern.mode_switch_good::kernel          nan                       # fraction of useful protection mode switches
system.switch_cpus2.kern.mode_switch_good::user          nan                       # fraction of useful protection mode switches
system.switch_cpus2.kern.mode_switch_good::idle          nan                       # fraction of useful protection mode switches
system.switch_cpus2.kern.mode_switch_good::total          nan                       # fraction of useful protection mode switches
system.switch_cpus2.kern.mode_ticks::kernel            0                       # number of ticks spent at the given mode
system.switch_cpus2.kern.mode_ticks::user            0                       # number of ticks spent at the given mode
system.switch_cpus2.kern.mode_ticks::idle            0                       # number of ticks spent at the given mode
system.switch_cpus2.kern.swap_context               0                       # number of times the context was actually changed
system.switch_cpus3.kern.inst.arm                   0                       # number of arm instructions executed
system.switch_cpus3.kern.inst.quiesce               0                       # number of quiesce instructions executed
system.switch_cpus3.kern.inst.hwrei                 0                       # number of hwrei instructions executed
system.switch_cpus3.kern.mode_switch::kernel            0                       # number of protection mode switches
system.switch_cpus3.kern.mode_switch::user            0                       # number of protection mode switches
system.switch_cpus3.kern.mode_switch::idle            0                       # number of protection mode switches
system.switch_cpus3.kern.mode_good::kernel            0                      
system.switch_cpus3.kern.mode_good::user            0                      
system.switch_cpus3.kern.mode_good::idle            0                      
system.switch_cpus3.kern.mode_switch_good::kernel          nan                       # fraction of useful protection mode switches
system.switch_cpus3.kern.mode_switch_good::user          nan                       # fraction of useful protection mode switches
system.switch_cpus3.kern.mode_switch_good::idle          nan                       # fraction of useful protection mode switches
system.switch_cpus3.kern.mode_switch_good::total          nan                       # fraction of useful protection mode switches
system.switch_cpus3.kern.mode_ticks::kernel            0                       # number of ticks spent at the given mode
system.switch_cpus3.kern.mode_ticks::user            0                       # number of ticks spent at the given mode
system.switch_cpus3.kern.mode_ticks::idle            0                       # number of ticks spent at the given mode
system.switch_cpus3.kern.swap_context               0                       # number of times the context was actually changed

---------- End Simulation Statistics   ----------
