
---------- Begin Simulation Statistics ----------
sim_seconds                                  0.001181                       # Number of seconds simulated
sim_ticks                                  1181294500                       # Number of ticks simulated
final_tick                               2262431887000                       # Number of ticks from beginning of simulation (restored from checkpoints and never reset)
sim_freq                                 1000000000000                       # Frequency of simulated ticks
host_inst_rate                               33505689                       # Simulator instruction rate (inst/s)
host_op_rate                                 33505613                       # Simulator op (including micro ops) rate (op/s)
host_tick_rate                              335748320                       # Simulator tick rate (ticks/s)
host_mem_usage                                 741908                       # Number of bytes of host memory used
host_seconds                                     3.52                       # Real time elapsed on the host
sim_insts                                   117885692                       # Number of instructions simulated
sim_ops                                     117885692                       # Number of ops (including micro ops) simulated
system.voltage_domain.voltage                       1                       # Voltage in Volts
system.clk_domain.clock                          1000                       # Clock period in ticks
system.mem_ctrls.bytes_read::switch_cpus0.inst       181056                       # Number of bytes read from this memory
system.mem_ctrls.bytes_read::switch_cpus0.data       244928                       # Number of bytes read from this memory
system.mem_ctrls.bytes_read::switch_cpus1.inst        74240                       # Number of bytes read from this memory
system.mem_ctrls.bytes_read::switch_cpus1.data       130624                       # Number of bytes read from this memory
system.mem_ctrls.bytes_read::switch_cpus2.inst         3712                       # Number of bytes read from this memory
system.mem_ctrls.bytes_read::switch_cpus2.data         2368                       # Number of bytes read from this memory
system.mem_ctrls.bytes_read::switch_cpus3.inst       236288                       # Number of bytes read from this memory
system.mem_ctrls.bytes_read::switch_cpus3.data       694528                       # Number of bytes read from this memory
system.mem_ctrls.bytes_read::total            1567744                       # Number of bytes read from this memory
system.mem_ctrls.bytes_inst_read::switch_cpus0.inst       181056                       # Number of instructions bytes read from this memory
system.mem_ctrls.bytes_inst_read::switch_cpus1.inst        74240                       # Number of instructions bytes read from this memory
system.mem_ctrls.bytes_inst_read::switch_cpus2.inst         3712                       # Number of instructions bytes read from this memory
system.mem_ctrls.bytes_inst_read::switch_cpus3.inst       236288                       # Number of instructions bytes read from this memory
system.mem_ctrls.bytes_inst_read::total        495296                       # Number of instructions bytes read from this memory
system.mem_ctrls.bytes_written::writebacks       661440                       # Number of bytes written to this memory
system.mem_ctrls.bytes_written::total          661440                       # Number of bytes written to this memory
system.mem_ctrls.num_reads::switch_cpus0.inst         2829                       # Number of read requests responded to by this memory
system.mem_ctrls.num_reads::switch_cpus0.data         3827                       # Number of read requests responded to by this memory
system.mem_ctrls.num_reads::switch_cpus1.inst         1160                       # Number of read requests responded to by this memory
system.mem_ctrls.num_reads::switch_cpus1.data         2041                       # Number of read requests responded to by this memory
system.mem_ctrls.num_reads::switch_cpus2.inst           58                       # Number of read requests responded to by this memory
system.mem_ctrls.num_reads::switch_cpus2.data           37                       # Number of read requests responded to by this memory
system.mem_ctrls.num_reads::switch_cpus3.inst         3692                       # Number of read requests responded to by this memory
system.mem_ctrls.num_reads::switch_cpus3.data        10852                       # Number of read requests responded to by this memory
system.mem_ctrls.num_reads::total               24496                       # Number of read requests responded to by this memory
system.mem_ctrls.num_writes::writebacks         10335                       # Number of write requests responded to by this memory
system.mem_ctrls.num_writes::total              10335                       # Number of write requests responded to by this memory
system.mem_ctrls.bw_read::switch_cpus0.inst    153269147                       # Total read bandwidth from this memory (bytes/s)
system.mem_ctrls.bw_read::switch_cpus0.data    207338644                       # Total read bandwidth from this memory (bytes/s)
system.mem_ctrls.bw_read::switch_cpus1.inst     62846310                       # Total read bandwidth from this memory (bytes/s)
system.mem_ctrls.bw_read::switch_cpus1.data    110576998                       # Total read bandwidth from this memory (bytes/s)
system.mem_ctrls.bw_read::switch_cpus2.inst      3142315                       # Total read bandwidth from this memory (bytes/s)
system.mem_ctrls.bw_read::switch_cpus2.data      2004581                       # Total read bandwidth from this memory (bytes/s)
system.mem_ctrls.bw_read::switch_cpus3.inst    200024634                       # Total read bandwidth from this memory (bytes/s)
system.mem_ctrls.bw_read::switch_cpus3.data    587938063                       # Total read bandwidth from this memory (bytes/s)
system.mem_ctrls.bw_read::total            1327140692                       # Total read bandwidth from this memory (bytes/s)
system.mem_ctrls.bw_inst_read::switch_cpus0.inst    153269147                       # Instruction read bandwidth from this memory (bytes/s)
system.mem_ctrls.bw_inst_read::switch_cpus1.inst     62846310                       # Instruction read bandwidth from this memory (bytes/s)
system.mem_ctrls.bw_inst_read::switch_cpus2.inst      3142315                       # Instruction read bandwidth from this memory (bytes/s)
system.mem_ctrls.bw_inst_read::switch_cpus3.inst    200024634                       # Instruction read bandwidth from this memory (bytes/s)
system.mem_ctrls.bw_inst_read::total        419282406                       # Instruction read bandwidth from this memory (bytes/s)
system.mem_ctrls.bw_write::writebacks       559928113                       # Write bandwidth from this memory (bytes/s)
system.mem_ctrls.bw_write::total            559928113                       # Write bandwidth from this memory (bytes/s)
system.mem_ctrls.bw_total::writebacks       559928113                       # Total bandwidth to/from this memory (bytes/s)
system.mem_ctrls.bw_total::switch_cpus0.inst    153269147                       # Total bandwidth to/from this memory (bytes/s)
system.mem_ctrls.bw_total::switch_cpus0.data    207338644                       # Total bandwidth to/from this memory (bytes/s)
system.mem_ctrls.bw_total::switch_cpus1.inst     62846310                       # Total bandwidth to/from this memory (bytes/s)
system.mem_ctrls.bw_total::switch_cpus1.data    110576998                       # Total bandwidth to/from this memory (bytes/s)
system.mem_ctrls.bw_total::switch_cpus2.inst      3142315                       # Total bandwidth to/from this memory (bytes/s)
system.mem_ctrls.bw_total::switch_cpus2.data      2004581                       # Total bandwidth to/from this memory (bytes/s)
system.mem_ctrls.bw_total::switch_cpus3.inst    200024634                       # Total bandwidth to/from this memory (bytes/s)
system.mem_ctrls.bw_total::switch_cpus3.data    587938063                       # Total bandwidth to/from this memory (bytes/s)
system.mem_ctrls.bw_total::total           1887068805                       # Total bandwidth to/from this memory (bytes/s)
system.mem_ctrls.readReqs                       24496                       # Number of read requests accepted
system.mem_ctrls.writeReqs                      10335                       # Number of write requests accepted
system.mem_ctrls.readBursts                     24496                       # Number of DRAM read bursts, including those serviced by the write queue
system.mem_ctrls.writeBursts                    10335                       # Number of DRAM write bursts, including those merged in the write queue
system.mem_ctrls.bytesReadDRAM                1563648                       # Total number of bytes read from DRAM
system.mem_ctrls.bytesReadWrQ                    4096                       # Total number of bytes read from write queue
system.mem_ctrls.bytesWritten                  659648                       # Total number of bytes written to DRAM
system.mem_ctrls.bytesReadSys                 1567744                       # Total read bytes from the system interface side
system.mem_ctrls.bytesWrittenSys               661440                       # Total written bytes from the system interface side
system.mem_ctrls.servicedByWrQ                     64                       # Number of DRAM read bursts serviced by the write queue
system.mem_ctrls.mergedWrBursts                     0                       # Number of DRAM write bursts merged with an existing one
system.mem_ctrls.neitherReadNorWriteReqs           60                       # Number of requests that are neither read nor write
system.mem_ctrls.perBankRdBursts::0              1141                       # Per bank write bursts
system.mem_ctrls.perBankRdBursts::1              1208                       # Per bank write bursts
system.mem_ctrls.perBankRdBursts::2              1545                       # Per bank write bursts
system.mem_ctrls.perBankRdBursts::3               960                       # Per bank write bursts
system.mem_ctrls.perBankRdBursts::4              1294                       # Per bank write bursts
system.mem_ctrls.perBankRdBursts::5              1944                       # Per bank write bursts
system.mem_ctrls.perBankRdBursts::6              1413                       # Per bank write bursts
system.mem_ctrls.perBankRdBursts::7              1202                       # Per bank write bursts
system.mem_ctrls.perBankRdBursts::8              1674                       # Per bank write bursts
system.mem_ctrls.perBankRdBursts::9              1923                       # Per bank write bursts
system.mem_ctrls.perBankRdBursts::10             1400                       # Per bank write bursts
system.mem_ctrls.perBankRdBursts::11             1303                       # Per bank write bursts
system.mem_ctrls.perBankRdBursts::12             1747                       # Per bank write bursts
system.mem_ctrls.perBankRdBursts::13             2431                       # Per bank write bursts
system.mem_ctrls.perBankRdBursts::14             1699                       # Per bank write bursts
system.mem_ctrls.perBankRdBursts::15             1548                       # Per bank write bursts
system.mem_ctrls.perBankWrBursts::0               422                       # Per bank write bursts
system.mem_ctrls.perBankWrBursts::1               624                       # Per bank write bursts
system.mem_ctrls.perBankWrBursts::2               394                       # Per bank write bursts
system.mem_ctrls.perBankWrBursts::3               201                       # Per bank write bursts
system.mem_ctrls.perBankWrBursts::4               342                       # Per bank write bursts
system.mem_ctrls.perBankWrBursts::5               795                       # Per bank write bursts
system.mem_ctrls.perBankWrBursts::6               395                       # Per bank write bursts
system.mem_ctrls.perBankWrBursts::7               295                       # Per bank write bursts
system.mem_ctrls.perBankWrBursts::8               412                       # Per bank write bursts
system.mem_ctrls.perBankWrBursts::9               593                       # Per bank write bursts
system.mem_ctrls.perBankWrBursts::10              700                       # Per bank write bursts
system.mem_ctrls.perBankWrBursts::11              761                       # Per bank write bursts
system.mem_ctrls.perBankWrBursts::12             1136                       # Per bank write bursts
system.mem_ctrls.perBankWrBursts::13             1225                       # Per bank write bursts
system.mem_ctrls.perBankWrBursts::14             1052                       # Per bank write bursts
system.mem_ctrls.perBankWrBursts::15              960                       # Per bank write bursts
system.mem_ctrls.numRdRetry                         0                       # Number of times read queue was full causing retry
system.mem_ctrls.numWrRetry                         0                       # Number of times write queue was full causing retry
system.mem_ctrls.totGap                    1181207000                       # Total gap between requests
system.mem_ctrls.readPktSize::0                     0                       # Read request sizes (log2)
system.mem_ctrls.readPktSize::1                     0                       # Read request sizes (log2)
system.mem_ctrls.readPktSize::2                     0                       # Read request sizes (log2)
system.mem_ctrls.readPktSize::3                     0                       # Read request sizes (log2)
system.mem_ctrls.readPktSize::4                     0                       # Read request sizes (log2)
system.mem_ctrls.readPktSize::5                     0                       # Read request sizes (log2)
system.mem_ctrls.readPktSize::6                 24496                       # Read request sizes (log2)
system.mem_ctrls.writePktSize::0                    0                       # Write request sizes (log2)
system.mem_ctrls.writePktSize::1                    0                       # Write request sizes (log2)
system.mem_ctrls.writePktSize::2                    0                       # Write request sizes (log2)
system.mem_ctrls.writePktSize::3                    0                       # Write request sizes (log2)
system.mem_ctrls.writePktSize::4                    0                       # Write request sizes (log2)
system.mem_ctrls.writePktSize::5                    0                       # Write request sizes (log2)
system.mem_ctrls.writePktSize::6                10335                       # Write request sizes (log2)
system.mem_ctrls.rdQLenPdf::0                   11329                       # What read queue length does an incoming req see
system.mem_ctrls.rdQLenPdf::1                    6750                       # What read queue length does an incoming req see
system.mem_ctrls.rdQLenPdf::2                    3790                       # What read queue length does an incoming req see
system.mem_ctrls.rdQLenPdf::3                    2175                       # What read queue length does an incoming req see
system.mem_ctrls.rdQLenPdf::4                     256                       # What read queue length does an incoming req see
system.mem_ctrls.rdQLenPdf::5                      83                       # What read queue length does an incoming req see
system.mem_ctrls.rdQLenPdf::6                      28                       # What read queue length does an incoming req see
system.mem_ctrls.rdQLenPdf::7                      10                       # What read queue length does an incoming req see
system.mem_ctrls.rdQLenPdf::8                       5                       # What read queue length does an incoming req see
system.mem_ctrls.rdQLenPdf::9                       2                       # What read queue length does an incoming req see
system.mem_ctrls.rdQLenPdf::10                      1                       # What read queue length does an incoming req see
system.mem_ctrls.rdQLenPdf::11                      1                       # What read queue length does an incoming req see
system.mem_ctrls.rdQLenPdf::12                      1                       # What read queue length does an incoming req see
system.mem_ctrls.rdQLenPdf::13                      1                       # What read queue length does an incoming req see
system.mem_ctrls.rdQLenPdf::14                      0                       # What read queue length does an incoming req see
system.mem_ctrls.rdQLenPdf::15                      0                       # What read queue length does an incoming req see
system.mem_ctrls.rdQLenPdf::16                      0                       # What read queue length does an incoming req see
system.mem_ctrls.rdQLenPdf::17                      0                       # What read queue length does an incoming req see
system.mem_ctrls.rdQLenPdf::18                      0                       # What read queue length does an incoming req see
system.mem_ctrls.rdQLenPdf::19                      0                       # What read queue length does an incoming req see
system.mem_ctrls.rdQLenPdf::20                      0                       # What read queue length does an incoming req see
system.mem_ctrls.rdQLenPdf::21                      0                       # What read queue length does an incoming req see
system.mem_ctrls.rdQLenPdf::22                      0                       # What read queue length does an incoming req see
system.mem_ctrls.rdQLenPdf::23                      0                       # What read queue length does an incoming req see
system.mem_ctrls.rdQLenPdf::24                      0                       # What read queue length does an incoming req see
system.mem_ctrls.rdQLenPdf::25                      0                       # What read queue length does an incoming req see
system.mem_ctrls.rdQLenPdf::26                      0                       # What read queue length does an incoming req see
system.mem_ctrls.rdQLenPdf::27                      0                       # What read queue length does an incoming req see
system.mem_ctrls.rdQLenPdf::28                      0                       # What read queue length does an incoming req see
system.mem_ctrls.rdQLenPdf::29                      0                       # What read queue length does an incoming req see
system.mem_ctrls.rdQLenPdf::30                      0                       # What read queue length does an incoming req see
system.mem_ctrls.rdQLenPdf::31                      0                       # What read queue length does an incoming req see
system.mem_ctrls.wrQLenPdf::0                       1                       # What write queue length does an incoming req see
system.mem_ctrls.wrQLenPdf::1                       1                       # What write queue length does an incoming req see
system.mem_ctrls.wrQLenPdf::2                       1                       # What write queue length does an incoming req see
system.mem_ctrls.wrQLenPdf::3                       1                       # What write queue length does an incoming req see
system.mem_ctrls.wrQLenPdf::4                       1                       # What write queue length does an incoming req see
system.mem_ctrls.wrQLenPdf::5                       1                       # What write queue length does an incoming req see
system.mem_ctrls.wrQLenPdf::6                       1                       # What write queue length does an incoming req see
system.mem_ctrls.wrQLenPdf::7                       1                       # What write queue length does an incoming req see
system.mem_ctrls.wrQLenPdf::8                       1                       # What write queue length does an incoming req see
system.mem_ctrls.wrQLenPdf::9                       1                       # What write queue length does an incoming req see
system.mem_ctrls.wrQLenPdf::10                      1                       # What write queue length does an incoming req see
system.mem_ctrls.wrQLenPdf::11                      1                       # What write queue length does an incoming req see
system.mem_ctrls.wrQLenPdf::12                      1                       # What write queue length does an incoming req see
system.mem_ctrls.wrQLenPdf::13                      1                       # What write queue length does an incoming req see
system.mem_ctrls.wrQLenPdf::14                      1                       # What write queue length does an incoming req see
system.mem_ctrls.wrQLenPdf::15                     43                       # What write queue length does an incoming req see
system.mem_ctrls.wrQLenPdf::16                     46                       # What write queue length does an incoming req see
system.mem_ctrls.wrQLenPdf::17                    292                       # What write queue length does an incoming req see
system.mem_ctrls.wrQLenPdf::18                    454                       # What write queue length does an incoming req see
system.mem_ctrls.wrQLenPdf::19                    566                       # What write queue length does an incoming req see
system.mem_ctrls.wrQLenPdf::20                    639                       # What write queue length does an incoming req see
system.mem_ctrls.wrQLenPdf::21                    663                       # What write queue length does an incoming req see
system.mem_ctrls.wrQLenPdf::22                    667                       # What write queue length does an incoming req see
system.mem_ctrls.wrQLenPdf::23                    667                       # What write queue length does an incoming req see
system.mem_ctrls.wrQLenPdf::24                    665                       # What write queue length does an incoming req see
system.mem_ctrls.wrQLenPdf::25                    683                       # What write queue length does an incoming req see
system.mem_ctrls.wrQLenPdf::26                    761                       # What write queue length does an incoming req see
system.mem_ctrls.wrQLenPdf::27                    696                       # What write queue length does an incoming req see
system.mem_ctrls.wrQLenPdf::28                    695                       # What write queue length does an incoming req see
system.mem_ctrls.wrQLenPdf::29                    767                       # What write queue length does an incoming req see
system.mem_ctrls.wrQLenPdf::30                    677                       # What write queue length does an incoming req see
system.mem_ctrls.wrQLenPdf::31                    683                       # What write queue length does an incoming req see
system.mem_ctrls.wrQLenPdf::32                    648                       # What write queue length does an incoming req see
system.mem_ctrls.wrQLenPdf::33                      5                       # What write queue length does an incoming req see
system.mem_ctrls.wrQLenPdf::34                      3                       # What write queue length does an incoming req see
system.mem_ctrls.wrQLenPdf::35                      0                       # What write queue length does an incoming req see
system.mem_ctrls.wrQLenPdf::36                      0                       # What write queue length does an incoming req see
system.mem_ctrls.wrQLenPdf::37                      0                       # What write queue length does an incoming req see
system.mem_ctrls.wrQLenPdf::38                      0                       # What write queue length does an incoming req see
system.mem_ctrls.wrQLenPdf::39                      0                       # What write queue length does an incoming req see
system.mem_ctrls.wrQLenPdf::40                      0                       # What write queue length does an incoming req see
system.mem_ctrls.wrQLenPdf::41                      0                       # What write queue length does an incoming req see
system.mem_ctrls.wrQLenPdf::42                      0                       # What write queue length does an incoming req see
system.mem_ctrls.wrQLenPdf::43                      0                       # What write queue length does an incoming req see
system.mem_ctrls.wrQLenPdf::44                      0                       # What write queue length does an incoming req see
system.mem_ctrls.wrQLenPdf::45                      0                       # What write queue length does an incoming req see
system.mem_ctrls.wrQLenPdf::46                      0                       # What write queue length does an incoming req see
system.mem_ctrls.wrQLenPdf::47                      0                       # What write queue length does an incoming req see
system.mem_ctrls.wrQLenPdf::48                      0                       # What write queue length does an incoming req see
system.mem_ctrls.wrQLenPdf::49                      0                       # What write queue length does an incoming req see
system.mem_ctrls.wrQLenPdf::50                      0                       # What write queue length does an incoming req see
system.mem_ctrls.wrQLenPdf::51                      0                       # What write queue length does an incoming req see
system.mem_ctrls.wrQLenPdf::52                      0                       # What write queue length does an incoming req see
system.mem_ctrls.wrQLenPdf::53                      0                       # What write queue length does an incoming req see
system.mem_ctrls.wrQLenPdf::54                      0                       # What write queue length does an incoming req see
system.mem_ctrls.wrQLenPdf::55                      0                       # What write queue length does an incoming req see
system.mem_ctrls.wrQLenPdf::56                      0                       # What write queue length does an incoming req see
system.mem_ctrls.wrQLenPdf::57                      0                       # What write queue length does an incoming req see
system.mem_ctrls.wrQLenPdf::58                      0                       # What write queue length does an incoming req see
system.mem_ctrls.wrQLenPdf::59                      0                       # What write queue length does an incoming req see
system.mem_ctrls.wrQLenPdf::60                      0                       # What write queue length does an incoming req see
system.mem_ctrls.wrQLenPdf::61                      0                       # What write queue length does an incoming req see
system.mem_ctrls.wrQLenPdf::62                      0                       # What write queue length does an incoming req see
system.mem_ctrls.wrQLenPdf::63                      0                       # What write queue length does an incoming req see
system.mem_ctrls.bytesPerActivate::samples         9220                       # Bytes accessed per row activation
system.mem_ctrls.bytesPerActivate::mean    240.742733                       # Bytes accessed per row activation
system.mem_ctrls.bytesPerActivate::gmean   141.149784                       # Bytes accessed per row activation
system.mem_ctrls.bytesPerActivate::stdev   292.935456                       # Bytes accessed per row activation
system.mem_ctrls.bytesPerActivate::0-127         4471     48.49%     48.49% # Bytes accessed per row activation
system.mem_ctrls.bytesPerActivate::128-255         2182     23.67%     72.16% # Bytes accessed per row activation
system.mem_ctrls.bytesPerActivate::256-383          755      8.19%     80.35% # Bytes accessed per row activation
system.mem_ctrls.bytesPerActivate::384-511          376      4.08%     84.43% # Bytes accessed per row activation
system.mem_ctrls.bytesPerActivate::512-639          264      2.86%     87.29% # Bytes accessed per row activation
system.mem_ctrls.bytesPerActivate::640-767          153      1.66%     88.95% # Bytes accessed per row activation
system.mem_ctrls.bytesPerActivate::768-895          151      1.64%     90.59% # Bytes accessed per row activation
system.mem_ctrls.bytesPerActivate::896-1023          103      1.12%     91.70% # Bytes accessed per row activation
system.mem_ctrls.bytesPerActivate::1024-1151          765      8.30%    100.00% # Bytes accessed per row activation
system.mem_ctrls.bytesPerActivate::total         9220                       # Bytes accessed per row activation
system.mem_ctrls.rdPerTurnAround::samples          637                       # Reads before turning the bus around for writes
system.mem_ctrls.rdPerTurnAround::mean      38.302983                       # Reads before turning the bus around for writes
system.mem_ctrls.rdPerTurnAround::gmean     31.537545                       # Reads before turning the bus around for writes
system.mem_ctrls.rdPerTurnAround::stdev     26.582627                       # Reads before turning the bus around for writes
system.mem_ctrls.rdPerTurnAround::8-15             45      7.06%      7.06% # Reads before turning the bus around for writes
system.mem_ctrls.rdPerTurnAround::16-23           194     30.46%     37.52% # Reads before turning the bus around for writes
system.mem_ctrls.rdPerTurnAround::24-31            82     12.87%     50.39% # Reads before turning the bus around for writes
system.mem_ctrls.rdPerTurnAround::32-39            79     12.40%     62.79% # Reads before turning the bus around for writes
system.mem_ctrls.rdPerTurnAround::40-47            68     10.68%     73.47% # Reads before turning the bus around for writes
system.mem_ctrls.rdPerTurnAround::48-55            47      7.38%     80.85% # Reads before turning the bus around for writes
system.mem_ctrls.rdPerTurnAround::56-63            33      5.18%     86.03% # Reads before turning the bus around for writes
system.mem_ctrls.rdPerTurnAround::64-71            19      2.98%     89.01% # Reads before turning the bus around for writes
system.mem_ctrls.rdPerTurnAround::72-79            19      2.98%     91.99% # Reads before turning the bus around for writes
system.mem_ctrls.rdPerTurnAround::80-87            13      2.04%     94.03% # Reads before turning the bus around for writes
system.mem_ctrls.rdPerTurnAround::88-95            10      1.57%     95.60% # Reads before turning the bus around for writes
system.mem_ctrls.rdPerTurnAround::96-103           11      1.73%     97.33% # Reads before turning the bus around for writes
system.mem_ctrls.rdPerTurnAround::104-111            3      0.47%     97.80% # Reads before turning the bus around for writes
system.mem_ctrls.rdPerTurnAround::112-119            3      0.47%     98.27% # Reads before turning the bus around for writes
system.mem_ctrls.rdPerTurnAround::120-127            4      0.63%     98.90% # Reads before turning the bus around for writes
system.mem_ctrls.rdPerTurnAround::128-135            1      0.16%     99.06% # Reads before turning the bus around for writes
system.mem_ctrls.rdPerTurnAround::136-143            3      0.47%     99.53% # Reads before turning the bus around for writes
system.mem_ctrls.rdPerTurnAround::144-151            1      0.16%     99.69% # Reads before turning the bus around for writes
system.mem_ctrls.rdPerTurnAround::168-175            1      0.16%     99.84% # Reads before turning the bus around for writes
system.mem_ctrls.rdPerTurnAround::224-231            1      0.16%    100.00% # Reads before turning the bus around for writes
system.mem_ctrls.rdPerTurnAround::total           637                       # Reads before turning the bus around for writes
system.mem_ctrls.wrPerTurnAround::samples          637                       # Writes before turning the bus around for reads
system.mem_ctrls.wrPerTurnAround::mean      16.180534                       # Writes before turning the bus around for reads
system.mem_ctrls.wrPerTurnAround::gmean     16.168586                       # Writes before turning the bus around for reads
system.mem_ctrls.wrPerTurnAround::stdev      0.651846                       # Writes before turning the bus around for reads
system.mem_ctrls.wrPerTurnAround::16              587     92.15%     92.15% # Writes before turning the bus around for reads
system.mem_ctrls.wrPerTurnAround::17                4      0.63%     92.78% # Writes before turning the bus around for reads
system.mem_ctrls.wrPerTurnAround::18               31      4.87%     97.65% # Writes before turning the bus around for reads
system.mem_ctrls.wrPerTurnAround::19               11      1.73%     99.37% # Writes before turning the bus around for reads
system.mem_ctrls.wrPerTurnAround::20                4      0.63%    100.00% # Writes before turning the bus around for reads
system.mem_ctrls.wrPerTurnAround::total           637                       # Writes before turning the bus around for reads
system.mem_ctrls.totQLat                    500283750                       # Total ticks spent queuing
system.mem_ctrls.totMemAccLat               958383750                       # Total ticks spent from burst creation until serviced by the DRAM
system.mem_ctrls.totBusLat                  122160000                       # Total ticks spent in databus transfers
system.mem_ctrls.avgQLat                     20476.58                       # Average queueing delay per DRAM burst
system.mem_ctrls.avgBusLat                    5000.00                       # Average bus latency per DRAM burst
system.mem_ctrls.avgMemAccLat                39226.58                       # Average memory access latency per DRAM burst
system.mem_ctrls.avgRdBW                      1323.67                       # Average DRAM read bandwidth in MiByte/s
system.mem_ctrls.avgWrBW                       558.41                       # Average achieved write bandwidth in MiByte/s
system.mem_ctrls.avgRdBWSys                   1327.14                       # Average system read bandwidth in MiByte/s
system.mem_ctrls.avgWrBWSys                    559.93                       # Average system write bandwidth in MiByte/s
system.mem_ctrls.peakBW                      12800.00                       # Theoretical peak bandwidth in MiByte/s
system.mem_ctrls.busUtil                        14.70                       # Data bus utilization in percentage
system.mem_ctrls.busUtilRead                    10.34                       # Data bus utilization in percentage for reads
system.mem_ctrls.busUtilWrite                    4.36                       # Data bus utilization in percentage for writes
system.mem_ctrls.avgRdQLen                       1.94                       # Average read queue length when enqueuing
system.mem_ctrls.avgWrQLen                      25.69                       # Average write queue length when enqueuing
system.mem_ctrls.readRowHits                    18193                       # Number of row buffer hits during reads
system.mem_ctrls.writeRowHits                    7310                       # Number of row buffer hits during writes
system.mem_ctrls.readRowHitRate                 74.46                       # Row buffer hit rate for reads
system.mem_ctrls.writeRowHitRate                70.73                       # Row buffer hit rate for writes
system.mem_ctrls.avgGap                      33912.52                       # Average gap between requests
system.mem_ctrls.pageHitRate                    73.35                       # Row buffer hit rate, read and write combined
system.mem_ctrls_0.actEnergy                 27336960                       # Energy for activate commands per rank (pJ)
system.mem_ctrls_0.preEnergy                 14916000                       # Energy for precharge commands per rank (pJ)
system.mem_ctrls_0.readEnergy                83171400                       # Energy for read commands per rank (pJ)
system.mem_ctrls_0.writeEnergy               22174560                       # Energy for write commands per rank (pJ)
system.mem_ctrls_0.refreshEnergy             76792560                       # Energy for refresh commands per rank (pJ)
system.mem_ctrls_0.actBackEnergy            777680640                       # Energy for active background per rank (pJ)
system.mem_ctrls_0.preBackEnergy             23414250                       # Energy for precharge background per rank (pJ)
system.mem_ctrls_0.totalEnergy             1025486370                       # Total energy per rank (pJ)
system.mem_ctrls_0.averagePower            872.024269                       # Core power per rank (mW)
system.mem_ctrls_0.memoryStateTime::IDLE     34033500                       # Time in different power states
system.mem_ctrls_0.memoryStateTime::REF      39260000                       # Time in different power states
system.mem_ctrls_0.memoryStateTime::PRE_PDN            0                       # Time in different power states
system.mem_ctrls_0.memoryStateTime::ACT    1102854500                       # Time in different power states
system.mem_ctrls_0.memoryStateTime::ACT_PDN            0                       # Time in different power states
system.mem_ctrls_1.actEnergy                 42033600                       # Energy for activate commands per rank (pJ)
system.mem_ctrls_1.preEnergy                 22935000                       # Energy for precharge commands per rank (pJ)
system.mem_ctrls_1.readEnergy               106657200                       # Energy for read commands per rank (pJ)
system.mem_ctrls_1.writeEnergy               44303760                       # Energy for write commands per rank (pJ)
system.mem_ctrls_1.refreshEnergy             76792560                       # Energy for refresh commands per rank (pJ)
system.mem_ctrls_1.actBackEnergy            785574855                       # Energy for active background per rank (pJ)
system.mem_ctrls_1.preBackEnergy             16503750                       # Energy for precharge background per rank (pJ)
system.mem_ctrls_1.totalEnergy             1094800725                       # Total energy per rank (pJ)
system.mem_ctrls_1.averagePower            930.947060                       # Core power per rank (mW)
system.mem_ctrls_1.memoryStateTime::IDLE     22617250                       # Time in different power states
system.mem_ctrls_1.memoryStateTime::REF      39260000                       # Time in different power states
system.mem_ctrls_1.memoryStateTime::PRE_PDN            0                       # Time in different power states
system.mem_ctrls_1.memoryStateTime::ACT    1114143250                       # Time in different power states
system.mem_ctrls_1.memoryStateTime::ACT_PDN            0                       # Time in different power states
system.cpu_voltage_domain.voltage                   1                       # Voltage in Volts
system.cpu_clk_domain.clock                       500                       # Clock period in ticks
system.cpu0.dtb.fetch_hits                          0                       # ITB hits
system.cpu0.dtb.fetch_misses                        0                       # ITB misses
system.cpu0.dtb.fetch_acv                           0                       # ITB acv
system.cpu0.dtb.fetch_accesses                      0                       # ITB accesses
system.cpu0.dtb.read_hits                           0                       # DTB read hits
system.cpu0.dtb.read_misses                         0                       # DTB read misses
system.cpu0.dtb.read_acv                            0                       # DTB read access violations
system.cpu0.dtb.read_accesses                       0                       # DTB read accesses
system.cpu0.dtb.write_hits                          0                       # DTB write hits
system.cpu0.dtb.write_misses                        0                       # DTB write misses
system.cpu0.dtb.write_acv                           0                       # DTB write access violations
system.cpu0.dtb.write_accesses                      0                       # DTB write accesses
system.cpu0.dtb.data_hits                           0                       # DTB hits
system.cpu0.dtb.data_misses                         0                       # DTB misses
system.cpu0.dtb.data_acv                            0                       # DTB access violations
system.cpu0.dtb.data_accesses                       0                       # DTB accesses
system.cpu0.itb.fetch_hits                          0                       # ITB hits
system.cpu0.itb.fetch_misses                        0                       # ITB misses
system.cpu0.itb.fetch_acv                           0                       # ITB acv
system.cpu0.itb.fetch_accesses                      0                       # ITB accesses
system.cpu0.itb.read_hits                           0                       # DTB read hits
system.cpu0.itb.read_misses                         0                       # DTB read misses
system.cpu0.itb.read_acv                            0                       # DTB read access violations
system.cpu0.itb.read_accesses                       0                       # DTB read accesses
system.cpu0.itb.write_hits                          0                       # DTB write hits
system.cpu0.itb.write_misses                        0                       # DTB write misses
system.cpu0.itb.write_acv                           0                       # DTB write access violations
system.cpu0.itb.write_accesses                      0                       # DTB write accesses
system.cpu0.itb.data_hits                           0                       # DTB hits
system.cpu0.itb.data_misses                         0                       # DTB misses
system.cpu0.itb.data_acv                            0                       # DTB access violations
system.cpu0.itb.data_accesses                       0                       # DTB accesses
system.cpu0.numCycles                               0                       # number of cpu cycles simulated
system.cpu0.numWorkItemsStarted                     0                       # number of work items this cpu started
system.cpu0.numWorkItemsCompleted                   0                       # number of work items this cpu completed
system.cpu0.committedInsts                          0                       # Number of instructions committed
system.cpu0.committedOps                            0                       # Number of ops (including micro ops) committed
system.cpu0.num_int_alu_accesses                    0                       # Number of integer alu accesses
system.cpu0.num_fp_alu_accesses                     0                       # Number of float alu accesses
system.cpu0.num_func_calls                          0                       # number of times a function call or return occured
system.cpu0.num_conditional_control_insts            0                       # number of instructions that are conditional controls
system.cpu0.num_int_insts                           0                       # number of integer instructions
system.cpu0.num_fp_insts                            0                       # number of float instructions
system.cpu0.num_int_register_reads                  0                       # number of times the integer registers were read
system.cpu0.num_int_register_writes                 0                       # number of times the integer registers were written
system.cpu0.num_fp_register_reads                   0                       # number of times the floating registers were read
system.cpu0.num_fp_register_writes                  0                       # number of times the floating registers were written
system.cpu0.num_mem_refs                            0                       # number of memory refs
system.cpu0.num_load_insts                          0                       # Number of load instructions
system.cpu0.num_store_insts                         0                       # Number of store instructions
system.cpu0.num_idle_cycles                         0                       # Number of idle cycles
system.cpu0.num_busy_cycles                         0                       # Number of busy cycles
system.cpu0.not_idle_fraction                       1                       # Percentage of non-idle cycles
system.cpu0.idle_fraction                           0                       # Percentage of idle cycles
system.cpu0.op_class::No_OpClass                    0                       # Class of executed instruction
system.cpu0.op_class::IntAlu                        0                       # Class of executed instruction
system.cpu0.op_class::IntMult                       0                       # Class of executed instruction
system.cpu0.op_class::IntDiv                        0                       # Class of executed instruction
system.cpu0.op_class::FloatAdd                      0                       # Class of executed instruction
system.cpu0.op_class::FloatCmp                      0                       # Class of executed instruction
system.cpu0.op_class::FloatCvt                      0                       # Class of executed instruction
system.cpu0.op_class::FloatMult                     0                       # Class of executed instruction
system.cpu0.op_class::FloatDiv                      0                       # Class of executed instruction
system.cpu0.op_class::FloatSqrt                     0                       # Class of executed instruction
system.cpu0.op_class::SimdAdd                       0                       # Class of executed instruction
system.cpu0.op_class::SimdAddAcc                    0                       # Class of executed instruction
system.cpu0.op_class::SimdAlu                       0                       # Class of executed instruction
system.cpu0.op_class::SimdCmp                       0                       # Class of executed instruction
system.cpu0.op_class::SimdCvt                       0                       # Class of executed instruction
system.cpu0.op_class::SimdMisc                      0                       # Class of executed instruction
system.cpu0.op_class::SimdMult                      0                       # Class of executed instruction
system.cpu0.op_class::SimdMultAcc                   0                       # Class of executed instruction
system.cpu0.op_class::SimdShift                     0                       # Class of executed instruction
system.cpu0.op_class::SimdShiftAcc                  0                       # Class of executed instruction
system.cpu0.op_class::SimdSqrt                      0                       # Class of executed instruction
system.cpu0.op_class::SimdFloatAdd                  0                       # Class of executed instruction
system.cpu0.op_class::SimdFloatAlu                  0                       # Class of executed instruction
system.cpu0.op_class::SimdFloatCmp                  0                       # Class of executed instruction
system.cpu0.op_class::SimdFloatCvt                  0                       # Class of executed instruction
system.cpu0.op_class::SimdFloatDiv                  0                       # Class of executed instruction
system.cpu0.op_class::SimdFloatMisc                 0                       # Class of executed instruction
system.cpu0.op_class::SimdFloatMult                 0                       # Class of executed instruction
system.cpu0.op_class::SimdFloatMultAcc              0                       # Class of executed instruction
system.cpu0.op_class::SimdFloatSqrt                 0                       # Class of executed instruction
system.cpu0.op_class::MemRead                       0                       # Class of executed instruction
system.cpu0.op_class::MemWrite                      0                       # Class of executed instruction
system.cpu0.op_class::IprAccess                     0                       # Class of executed instruction
system.cpu0.op_class::InstPrefetch                  0                       # Class of executed instruction
system.cpu0.op_class::total                         0                       # Class of executed instruction
system.cpu0.kern.inst.arm                           0                       # number of arm instructions executed
system.cpu0.kern.inst.quiesce                       3                       # number of quiesce instructions executed
system.cpu0.kern.inst.hwrei                       597                       # number of hwrei instructions executed
system.cpu0.kern.ipl_count::0                     168     46.28%     46.28% # number of times we switched to this ipl
system.cpu0.kern.ipl_count::22                      1      0.28%     46.56% # number of times we switched to this ipl
system.cpu0.kern.ipl_count::30                      1      0.28%     46.83% # number of times we switched to this ipl
system.cpu0.kern.ipl_count::31                    193     53.17%    100.00% # number of times we switched to this ipl
system.cpu0.kern.ipl_count::total                 363                       # number of times we switched to this ipl
system.cpu0.kern.ipl_good::0                      168     49.85%     49.85% # number of times we switched to this ipl from a different ipl
system.cpu0.kern.ipl_good::22                       1      0.30%     50.15% # number of times we switched to this ipl from a different ipl
system.cpu0.kern.ipl_good::30                       1      0.30%     50.45% # number of times we switched to this ipl from a different ipl
system.cpu0.kern.ipl_good::31                     167     49.55%    100.00% # number of times we switched to this ipl from a different ipl
system.cpu0.kern.ipl_good::total                  337                       # number of times we switched to this ipl from a different ipl
system.cpu0.kern.ipl_ticks::0               491363000     88.30%     88.30% # number of cycles we spent at this ipl
system.cpu0.kern.ipl_ticks::22                 889500      0.16%     88.46% # number of cycles we spent at this ipl
system.cpu0.kern.ipl_ticks::30                1496000      0.27%     88.73% # number of cycles we spent at this ipl
system.cpu0.kern.ipl_ticks::31               62738500     11.27%    100.00% # number of cycles we spent at this ipl
system.cpu0.kern.ipl_ticks::total           556487000                       # number of cycles we spent at this ipl
system.cpu0.kern.ipl_used::0                        1                       # fraction of swpipl calls that actually changed the ipl
system.cpu0.kern.ipl_used::22                       1                       # fraction of swpipl calls that actually changed the ipl
system.cpu0.kern.ipl_used::30                       1                       # fraction of swpipl calls that actually changed the ipl
system.cpu0.kern.ipl_used::31                0.865285                       # fraction of swpipl calls that actually changed the ipl
system.cpu0.kern.ipl_used::total             0.928375                       # fraction of swpipl calls that actually changed the ipl
system.cpu0.kern.syscall::2                         1     33.33%     33.33% # number of syscalls executed
system.cpu0.kern.syscall::3                         1     33.33%     66.67% # number of syscalls executed
system.cpu0.kern.syscall::19                        1     33.33%    100.00% # number of syscalls executed
system.cpu0.kern.syscall::total                     3                       # number of syscalls executed
system.cpu0.kern.callpal::wripir                    1      0.26%      0.26% # number of callpals executed
system.cpu0.kern.callpal::swpctx                   12      3.08%      3.34% # number of callpals executed
system.cpu0.kern.callpal::tbi                       2      0.51%      3.86% # number of callpals executed
system.cpu0.kern.callpal::swpipl                  342     87.92%     91.77% # number of callpals executed
system.cpu0.kern.callpal::rdps                      2      0.51%     92.29% # number of callpals executed
system.cpu0.kern.callpal::rdusp                     1      0.26%     92.54% # number of callpals executed
system.cpu0.kern.callpal::rti                      19      4.88%     97.43% # number of callpals executed
system.cpu0.kern.callpal::callsys                   9      2.31%     99.74% # number of callpals executed
system.cpu0.kern.callpal::imb                       1      0.26%    100.00% # number of callpals executed
system.cpu0.kern.callpal::total                   389                       # number of callpals executed
system.cpu0.kern.mode_switch::kernel               32                       # number of protection mode switches
system.cpu0.kern.mode_switch::user                 17                       # number of protection mode switches
system.cpu0.kern.mode_switch::idle                  0                       # number of protection mode switches
system.cpu0.kern.mode_good::kernel                 18                      
system.cpu0.kern.mode_good::user                   17                      
system.cpu0.kern.mode_good::idle                    0                      
system.cpu0.kern.mode_switch_good::kernel     0.562500                       # fraction of useful protection mode switches
system.cpu0.kern.mode_switch_good::user             1                       # fraction of useful protection mode switches
system.cpu0.kern.mode_switch_good::idle           nan                       # fraction of useful protection mode switches
system.cpu0.kern.mode_switch_good::total     0.714286                       # fraction of useful protection mode switches
system.cpu0.kern.mode_ticks::kernel         241871500     73.79%     73.79% # number of ticks spent at the given mode
system.cpu0.kern.mode_ticks::user            85933000     26.21%    100.00% # number of ticks spent at the given mode
system.cpu0.kern.mode_ticks::idle                   0      0.00%    100.00% # number of ticks spent at the given mode
system.cpu0.kern.swap_context                      12                       # number of times the context was actually changed
system.cpu0.dcache.tags.replacements             4846                       # number of replacements
system.cpu0.dcache.tags.tagsinuse          504.918896                       # Cycle average of tags in use
system.cpu0.dcache.tags.total_refs              55678                       # Total number of references to valid blocks.
system.cpu0.dcache.tags.sampled_refs             4846                       # Sample count of references to valid blocks.
system.cpu0.dcache.tags.avg_refs            11.489476                       # Average number of references to valid blocks.
system.cpu0.dcache.tags.warmup_cycle                0                       # Cycle when the warmup percentage was hit.
system.cpu0.dcache.tags.occ_blocks::cpu0.data    25.013272                       # Average occupied blocks per requestor
system.cpu0.dcache.tags.occ_blocks::switch_cpus0.data   479.905624                       # Average occupied blocks per requestor
system.cpu0.dcache.tags.occ_percent::cpu0.data     0.048854                       # Average percentage of cache occupancy
system.cpu0.dcache.tags.occ_percent::switch_cpus0.data     0.937316                       # Average percentage of cache occupancy
system.cpu0.dcache.tags.occ_percent::total     0.986170                       # Average percentage of cache occupancy
system.cpu0.dcache.tags.occ_task_id_blocks::1024          500                       # Occupied blocks per task id
system.cpu0.dcache.tags.age_task_id_blocks_1024::2          491                       # Occupied blocks per task id
system.cpu0.dcache.tags.age_task_id_blocks_1024::3            9                       # Occupied blocks per task id
system.cpu0.dcache.tags.occ_task_id_percent::1024     0.976562                       # Percentage of cache occupancy per task id
system.cpu0.dcache.tags.tag_accesses           290482                       # Number of tag accesses
system.cpu0.dcache.tags.data_accesses          290482                       # Number of data accesses
system.cpu0.dcache.ReadReq_hits::switch_cpus0.data        33195                       # number of ReadReq hits
system.cpu0.dcache.ReadReq_hits::total          33195                       # number of ReadReq hits
system.cpu0.dcache.WriteReq_hits::switch_cpus0.data        13617                       # number of WriteReq hits
system.cpu0.dcache.WriteReq_hits::total         13617                       # number of WriteReq hits
system.cpu0.dcache.LoadLockedReq_hits::switch_cpus0.data          535                       # number of LoadLockedReq hits
system.cpu0.dcache.LoadLockedReq_hits::total          535                       # number of LoadLockedReq hits
system.cpu0.dcache.StoreCondReq_hits::switch_cpus0.data          596                       # number of StoreCondReq hits
system.cpu0.dcache.StoreCondReq_hits::total          596                       # number of StoreCondReq hits
system.cpu0.dcache.demand_hits::switch_cpus0.data        46812                       # number of demand (read+write) hits
system.cpu0.dcache.demand_hits::total           46812                       # number of demand (read+write) hits
system.cpu0.dcache.overall_hits::switch_cpus0.data        46812                       # number of overall hits
system.cpu0.dcache.overall_hits::total          46812                       # number of overall hits
system.cpu0.dcache.ReadReq_misses::switch_cpus0.data         8800                       # number of ReadReq misses
system.cpu0.dcache.ReadReq_misses::total         8800                       # number of ReadReq misses
system.cpu0.dcache.WriteReq_misses::switch_cpus0.data        14471                       # number of WriteReq misses
system.cpu0.dcache.WriteReq_misses::total        14471                       # number of WriteReq misses
system.cpu0.dcache.LoadLockedReq_misses::switch_cpus0.data          158                       # number of LoadLockedReq misses
system.cpu0.dcache.LoadLockedReq_misses::total          158                       # number of LoadLockedReq misses
system.cpu0.dcache.StoreCondReq_misses::switch_cpus0.data           25                       # number of StoreCondReq misses
system.cpu0.dcache.StoreCondReq_misses::total           25                       # number of StoreCondReq misses
system.cpu0.dcache.demand_misses::switch_cpus0.data        23271                       # number of demand (read+write) misses
system.cpu0.dcache.demand_misses::total         23271                       # number of demand (read+write) misses
system.cpu0.dcache.overall_misses::switch_cpus0.data        23271                       # number of overall misses
system.cpu0.dcache.overall_misses::total        23271                       # number of overall misses
system.cpu0.dcache.ReadReq_miss_latency::switch_cpus0.data    539585168                       # number of ReadReq miss cycles
system.cpu0.dcache.ReadReq_miss_latency::total    539585168                       # number of ReadReq miss cycles
system.cpu0.dcache.WriteReq_miss_latency::switch_cpus0.data   1075605203                       # number of WriteReq miss cycles
system.cpu0.dcache.WriteReq_miss_latency::total   1075605203                       # number of WriteReq miss cycles
system.cpu0.dcache.LoadLockedReq_miss_latency::switch_cpus0.data     10457747                       # number of LoadLockedReq miss cycles
system.cpu0.dcache.LoadLockedReq_miss_latency::total     10457747                       # number of LoadLockedReq miss cycles
system.cpu0.dcache.StoreCondReq_miss_latency::switch_cpus0.data       212004                       # number of StoreCondReq miss cycles
system.cpu0.dcache.StoreCondReq_miss_latency::total       212004                       # number of StoreCondReq miss cycles
system.cpu0.dcache.StoreCondFailReq_miss_latency::switch_cpus0.data        21500                       # number of StoreCondFailReq miss cycles
system.cpu0.dcache.StoreCondFailReq_miss_latency::total        21500                       # number of StoreCondFailReq miss cycles
system.cpu0.dcache.demand_miss_latency::switch_cpus0.data   1615190371                       # number of demand (read+write) miss cycles
system.cpu0.dcache.demand_miss_latency::total   1615190371                       # number of demand (read+write) miss cycles
system.cpu0.dcache.overall_miss_latency::switch_cpus0.data   1615190371                       # number of overall miss cycles
system.cpu0.dcache.overall_miss_latency::total   1615190371                       # number of overall miss cycles
system.cpu0.dcache.ReadReq_accesses::switch_cpus0.data        41995                       # number of ReadReq accesses(hits+misses)
system.cpu0.dcache.ReadReq_accesses::total        41995                       # number of ReadReq accesses(hits+misses)
system.cpu0.dcache.WriteReq_accesses::switch_cpus0.data        28088                       # number of WriteReq accesses(hits+misses)
system.cpu0.dcache.WriteReq_accesses::total        28088                       # number of WriteReq accesses(hits+misses)
system.cpu0.dcache.LoadLockedReq_accesses::switch_cpus0.data          693                       # number of LoadLockedReq accesses(hits+misses)
system.cpu0.dcache.LoadLockedReq_accesses::total          693                       # number of LoadLockedReq accesses(hits+misses)
system.cpu0.dcache.StoreCondReq_accesses::switch_cpus0.data          621                       # number of StoreCondReq accesses(hits+misses)
system.cpu0.dcache.StoreCondReq_accesses::total          621                       # number of StoreCondReq accesses(hits+misses)
system.cpu0.dcache.demand_accesses::switch_cpus0.data        70083                       # number of demand (read+write) accesses
system.cpu0.dcache.demand_accesses::total        70083                       # number of demand (read+write) accesses
system.cpu0.dcache.overall_accesses::switch_cpus0.data        70083                       # number of overall (read+write) accesses
system.cpu0.dcache.overall_accesses::total        70083                       # number of overall (read+write) accesses
system.cpu0.dcache.ReadReq_miss_rate::switch_cpus0.data     0.209549                       # miss rate for ReadReq accesses
system.cpu0.dcache.ReadReq_miss_rate::total     0.209549                       # miss rate for ReadReq accesses
system.cpu0.dcache.WriteReq_miss_rate::switch_cpus0.data     0.515202                       # miss rate for WriteReq accesses
system.cpu0.dcache.WriteReq_miss_rate::total     0.515202                       # miss rate for WriteReq accesses
system.cpu0.dcache.LoadLockedReq_miss_rate::switch_cpus0.data     0.227994                       # miss rate for LoadLockedReq accesses
system.cpu0.dcache.LoadLockedReq_miss_rate::total     0.227994                       # miss rate for LoadLockedReq accesses
system.cpu0.dcache.StoreCondReq_miss_rate::switch_cpus0.data     0.040258                       # miss rate for StoreCondReq accesses
system.cpu0.dcache.StoreCondReq_miss_rate::total     0.040258                       # miss rate for StoreCondReq accesses
system.cpu0.dcache.demand_miss_rate::switch_cpus0.data     0.332049                       # miss rate for demand accesses
system.cpu0.dcache.demand_miss_rate::total     0.332049                       # miss rate for demand accesses
system.cpu0.dcache.overall_miss_rate::switch_cpus0.data     0.332049                       # miss rate for overall accesses
system.cpu0.dcache.overall_miss_rate::total     0.332049                       # miss rate for overall accesses
system.cpu0.dcache.ReadReq_avg_miss_latency::switch_cpus0.data 61316.496364                       # average ReadReq miss latency
system.cpu0.dcache.ReadReq_avg_miss_latency::total 61316.496364                       # average ReadReq miss latency
system.cpu0.dcache.WriteReq_avg_miss_latency::switch_cpus0.data 74328.325824                       # average WriteReq miss latency
system.cpu0.dcache.WriteReq_avg_miss_latency::total 74328.325824                       # average WriteReq miss latency
system.cpu0.dcache.LoadLockedReq_avg_miss_latency::switch_cpus0.data 66188.272152                       # average LoadLockedReq miss latency
system.cpu0.dcache.LoadLockedReq_avg_miss_latency::total 66188.272152                       # average LoadLockedReq miss latency
system.cpu0.dcache.StoreCondReq_avg_miss_latency::switch_cpus0.data  8480.160000                       # average StoreCondReq miss latency
system.cpu0.dcache.StoreCondReq_avg_miss_latency::total  8480.160000                       # average StoreCondReq miss latency
system.cpu0.dcache.StoreCondFailReq_avg_miss_latency::switch_cpus0.data          inf                       # average StoreCondFailReq miss latency
system.cpu0.dcache.StoreCondFailReq_avg_miss_latency::total          inf                       # average StoreCondFailReq miss latency
system.cpu0.dcache.demand_avg_miss_latency::switch_cpus0.data 69407.862619                       # average overall miss latency
system.cpu0.dcache.demand_avg_miss_latency::total 69407.862619                       # average overall miss latency
system.cpu0.dcache.overall_avg_miss_latency::switch_cpus0.data 69407.862619                       # average overall miss latency
system.cpu0.dcache.overall_avg_miss_latency::total 69407.862619                       # average overall miss latency
system.cpu0.dcache.blocked_cycles::no_mshrs        92990                       # number of cycles access was blocked
system.cpu0.dcache.blocked_cycles::no_targets          113                       # number of cycles access was blocked
system.cpu0.dcache.blocked::no_mshrs             2016                       # number of cycles access was blocked
system.cpu0.dcache.blocked::no_targets              3                       # number of cycles access was blocked
system.cpu0.dcache.avg_blocked_cycles::no_mshrs    46.125992                       # average number of cycles each access was blocked
system.cpu0.dcache.avg_blocked_cycles::no_targets    37.666667                       # average number of cycles each access was blocked
system.cpu0.dcache.fast_writes                      0                       # number of fast writes performed
system.cpu0.dcache.cache_copies                     0                       # number of cache copies performed
system.cpu0.dcache.writebacks::writebacks         2801                       # number of writebacks
system.cpu0.dcache.writebacks::total             2801                       # number of writebacks
system.cpu0.dcache.ReadReq_mshr_hits::switch_cpus0.data         6017                       # number of ReadReq MSHR hits
system.cpu0.dcache.ReadReq_mshr_hits::total         6017                       # number of ReadReq MSHR hits
system.cpu0.dcache.WriteReq_mshr_hits::switch_cpus0.data        12390                       # number of WriteReq MSHR hits
system.cpu0.dcache.WriteReq_mshr_hits::total        12390                       # number of WriteReq MSHR hits
system.cpu0.dcache.LoadLockedReq_mshr_hits::switch_cpus0.data           57                       # number of LoadLockedReq MSHR hits
system.cpu0.dcache.LoadLockedReq_mshr_hits::total           57                       # number of LoadLockedReq MSHR hits
system.cpu0.dcache.demand_mshr_hits::switch_cpus0.data        18407                       # number of demand (read+write) MSHR hits
system.cpu0.dcache.demand_mshr_hits::total        18407                       # number of demand (read+write) MSHR hits
system.cpu0.dcache.overall_mshr_hits::switch_cpus0.data        18407                       # number of overall MSHR hits
system.cpu0.dcache.overall_mshr_hits::total        18407                       # number of overall MSHR hits
system.cpu0.dcache.ReadReq_mshr_misses::switch_cpus0.data         2783                       # number of ReadReq MSHR misses
system.cpu0.dcache.ReadReq_mshr_misses::total         2783                       # number of ReadReq MSHR misses
system.cpu0.dcache.WriteReq_mshr_misses::switch_cpus0.data         2081                       # number of WriteReq MSHR misses
system.cpu0.dcache.WriteReq_mshr_misses::total         2081                       # number of WriteReq MSHR misses
system.cpu0.dcache.LoadLockedReq_mshr_misses::switch_cpus0.data          101                       # number of LoadLockedReq MSHR misses
system.cpu0.dcache.LoadLockedReq_mshr_misses::total          101                       # number of LoadLockedReq MSHR misses
system.cpu0.dcache.StoreCondReq_mshr_misses::switch_cpus0.data           25                       # number of StoreCondReq MSHR misses
system.cpu0.dcache.StoreCondReq_mshr_misses::total           25                       # number of StoreCondReq MSHR misses
system.cpu0.dcache.demand_mshr_misses::switch_cpus0.data         4864                       # number of demand (read+write) MSHR misses
system.cpu0.dcache.demand_mshr_misses::total         4864                       # number of demand (read+write) MSHR misses
system.cpu0.dcache.overall_mshr_misses::switch_cpus0.data         4864                       # number of overall MSHR misses
system.cpu0.dcache.overall_mshr_misses::total         4864                       # number of overall MSHR misses
system.cpu0.dcache.WriteReq_mshr_uncacheable::switch_cpus0.data            3                       # number of WriteReq MSHR uncacheable
system.cpu0.dcache.WriteReq_mshr_uncacheable::total            3                       # number of WriteReq MSHR uncacheable
system.cpu0.dcache.overall_mshr_uncacheable_misses::switch_cpus0.data            3                       # number of overall MSHR uncacheable misses
system.cpu0.dcache.overall_mshr_uncacheable_misses::total            3                       # number of overall MSHR uncacheable misses
system.cpu0.dcache.ReadReq_mshr_miss_latency::switch_cpus0.data    196783782                       # number of ReadReq MSHR miss cycles
system.cpu0.dcache.ReadReq_mshr_miss_latency::total    196783782                       # number of ReadReq MSHR miss cycles
system.cpu0.dcache.WriteReq_mshr_miss_latency::switch_cpus0.data    171366525                       # number of WriteReq MSHR miss cycles
system.cpu0.dcache.WriteReq_mshr_miss_latency::total    171366525                       # number of WriteReq MSHR miss cycles
system.cpu0.dcache.LoadLockedReq_mshr_miss_latency::switch_cpus0.data      6936503                       # number of LoadLockedReq MSHR miss cycles
system.cpu0.dcache.LoadLockedReq_mshr_miss_latency::total      6936503                       # number of LoadLockedReq MSHR miss cycles
system.cpu0.dcache.StoreCondReq_mshr_miss_latency::switch_cpus0.data       177496                       # number of StoreCondReq MSHR miss cycles
system.cpu0.dcache.StoreCondReq_mshr_miss_latency::total       177496                       # number of StoreCondReq MSHR miss cycles
system.cpu0.dcache.StoreCondFailReq_mshr_miss_latency::switch_cpus0.data        18500                       # number of StoreCondFailReq MSHR miss cycles
system.cpu0.dcache.StoreCondFailReq_mshr_miss_latency::total        18500                       # number of StoreCondFailReq MSHR miss cycles
system.cpu0.dcache.demand_mshr_miss_latency::switch_cpus0.data    368150307                       # number of demand (read+write) MSHR miss cycles
system.cpu0.dcache.demand_mshr_miss_latency::total    368150307                       # number of demand (read+write) MSHR miss cycles
system.cpu0.dcache.overall_mshr_miss_latency::switch_cpus0.data    368150307                       # number of overall MSHR miss cycles
system.cpu0.dcache.overall_mshr_miss_latency::total    368150307                       # number of overall MSHR miss cycles
system.cpu0.dcache.WriteReq_mshr_uncacheable_latency::switch_cpus0.data       670500                       # number of WriteReq MSHR uncacheable cycles
system.cpu0.dcache.WriteReq_mshr_uncacheable_latency::total       670500                       # number of WriteReq MSHR uncacheable cycles
system.cpu0.dcache.overall_mshr_uncacheable_latency::switch_cpus0.data       670500                       # number of overall MSHR uncacheable cycles
system.cpu0.dcache.overall_mshr_uncacheable_latency::total       670500                       # number of overall MSHR uncacheable cycles
system.cpu0.dcache.ReadReq_mshr_miss_rate::switch_cpus0.data     0.066270                       # mshr miss rate for ReadReq accesses
system.cpu0.dcache.ReadReq_mshr_miss_rate::total     0.066270                       # mshr miss rate for ReadReq accesses
system.cpu0.dcache.WriteReq_mshr_miss_rate::switch_cpus0.data     0.074089                       # mshr miss rate for WriteReq accesses
system.cpu0.dcache.WriteReq_mshr_miss_rate::total     0.074089                       # mshr miss rate for WriteReq accesses
system.cpu0.dcache.LoadLockedReq_mshr_miss_rate::switch_cpus0.data     0.145743                       # mshr miss rate for LoadLockedReq accesses
system.cpu0.dcache.LoadLockedReq_mshr_miss_rate::total     0.145743                       # mshr miss rate for LoadLockedReq accesses
system.cpu0.dcache.StoreCondReq_mshr_miss_rate::switch_cpus0.data     0.040258                       # mshr miss rate for StoreCondReq accesses
system.cpu0.dcache.StoreCondReq_mshr_miss_rate::total     0.040258                       # mshr miss rate for StoreCondReq accesses
system.cpu0.dcache.demand_mshr_miss_rate::switch_cpus0.data     0.069403                       # mshr miss rate for demand accesses
system.cpu0.dcache.demand_mshr_miss_rate::total     0.069403                       # mshr miss rate for demand accesses
system.cpu0.dcache.overall_mshr_miss_rate::switch_cpus0.data     0.069403                       # mshr miss rate for overall accesses
system.cpu0.dcache.overall_mshr_miss_rate::total     0.069403                       # mshr miss rate for overall accesses
system.cpu0.dcache.ReadReq_avg_mshr_miss_latency::switch_cpus0.data 70709.228171                       # average ReadReq mshr miss latency
system.cpu0.dcache.ReadReq_avg_mshr_miss_latency::total 70709.228171                       # average ReadReq mshr miss latency
system.cpu0.dcache.WriteReq_avg_mshr_miss_latency::switch_cpus0.data 82348.161941                       # average WriteReq mshr miss latency
system.cpu0.dcache.WriteReq_avg_mshr_miss_latency::total 82348.161941                       # average WriteReq mshr miss latency
system.cpu0.dcache.LoadLockedReq_avg_mshr_miss_latency::switch_cpus0.data 68678.247525                       # average LoadLockedReq mshr miss latency
system.cpu0.dcache.LoadLockedReq_avg_mshr_miss_latency::total 68678.247525                       # average LoadLockedReq mshr miss latency
system.cpu0.dcache.StoreCondReq_avg_mshr_miss_latency::switch_cpus0.data  7099.840000                       # average StoreCondReq mshr miss latency
system.cpu0.dcache.StoreCondReq_avg_mshr_miss_latency::total  7099.840000                       # average StoreCondReq mshr miss latency
system.cpu0.dcache.StoreCondFailReq_avg_mshr_miss_latency::switch_cpus0.data          inf                       # average StoreCondFailReq mshr miss latency
system.cpu0.dcache.StoreCondFailReq_avg_mshr_miss_latency::total          inf                       # average StoreCondFailReq mshr miss latency
system.cpu0.dcache.demand_avg_mshr_miss_latency::switch_cpus0.data 75688.796669                       # average overall mshr miss latency
system.cpu0.dcache.demand_avg_mshr_miss_latency::total 75688.796669                       # average overall mshr miss latency
system.cpu0.dcache.overall_avg_mshr_miss_latency::switch_cpus0.data 75688.796669                       # average overall mshr miss latency
system.cpu0.dcache.overall_avg_mshr_miss_latency::total 75688.796669                       # average overall mshr miss latency
system.cpu0.dcache.WriteReq_avg_mshr_uncacheable_latency::switch_cpus0.data       223500                       # average WriteReq mshr uncacheable latency
system.cpu0.dcache.WriteReq_avg_mshr_uncacheable_latency::total       223500                       # average WriteReq mshr uncacheable latency
system.cpu0.dcache.overall_avg_mshr_uncacheable_latency::switch_cpus0.data       223500                       # average overall mshr uncacheable latency
system.cpu0.dcache.overall_avg_mshr_uncacheable_latency::total       223500                       # average overall mshr uncacheable latency
system.cpu0.dcache.no_allocate_misses               0                       # Number of misses that were no-allocate
system.cpu0.icache.tags.replacements             3525                       # number of replacements
system.cpu0.icache.tags.tagsinuse          511.860728                       # Cycle average of tags in use
system.cpu0.icache.tags.total_refs             261028                       # Total number of references to valid blocks.
system.cpu0.icache.tags.sampled_refs             3525                       # Sample count of references to valid blocks.
system.cpu0.icache.tags.avg_refs            74.050496                       # Average number of references to valid blocks.
system.cpu0.icache.tags.warmup_cycle                0                       # Cycle when the warmup percentage was hit.
system.cpu0.icache.tags.occ_blocks::cpu0.inst    20.158785                       # Average occupied blocks per requestor
system.cpu0.icache.tags.occ_blocks::switch_cpus0.inst   491.701944                       # Average occupied blocks per requestor
system.cpu0.icache.tags.occ_percent::cpu0.inst     0.039373                       # Average percentage of cache occupancy
system.cpu0.icache.tags.occ_percent::switch_cpus0.inst     0.960355                       # Average percentage of cache occupancy
system.cpu0.icache.tags.occ_percent::total     0.999728                       # Average percentage of cache occupancy
system.cpu0.icache.tags.occ_task_id_blocks::1024          512                       # Occupied blocks per task id
system.cpu0.icache.tags.age_task_id_blocks_1024::2          471                       # Occupied blocks per task id
system.cpu0.icache.tags.age_task_id_blocks_1024::3           41                       # Occupied blocks per task id
system.cpu0.icache.tags.occ_task_id_percent::1024            1                       # Percentage of cache occupancy per task id
system.cpu0.icache.tags.tag_accesses            86555                       # Number of tag accesses
system.cpu0.icache.tags.data_accesses           86555                       # Number of data accesses
system.cpu0.icache.ReadReq_hits::switch_cpus0.inst        37183                       # number of ReadReq hits
system.cpu0.icache.ReadReq_hits::total          37183                       # number of ReadReq hits
system.cpu0.icache.demand_hits::switch_cpus0.inst        37183                       # number of demand (read+write) hits
system.cpu0.icache.demand_hits::total           37183                       # number of demand (read+write) hits
system.cpu0.icache.overall_hits::switch_cpus0.inst        37183                       # number of overall hits
system.cpu0.icache.overall_hits::total          37183                       # number of overall hits
system.cpu0.icache.ReadReq_misses::switch_cpus0.inst         4329                       # number of ReadReq misses
system.cpu0.icache.ReadReq_misses::total         4329                       # number of ReadReq misses
system.cpu0.icache.demand_misses::switch_cpus0.inst         4329                       # number of demand (read+write) misses
system.cpu0.icache.demand_misses::total          4329                       # number of demand (read+write) misses
system.cpu0.icache.overall_misses::switch_cpus0.inst         4329                       # number of overall misses
[...]
system.switch_cpus3.fp_regfile_reads              154                       # number of floating regfile reads
system.switch_cpus3.fp_regfile_writes             173                       # number of floating regfile writes
system.switch_cpus3.misc_regfile_reads         215222                       # number of misc regfile reads
system.switch_cpus3.misc_regfile_writes          7048                       # number of misc regfile writes
system.tol2bus.trans_dist::ReadReq            1477195                       # Transaction distribution
system.tol2bus.trans_dist::ReadResp           1477158                       # Transaction distribution
system.tol2bus.trans_dist::WriteReq               447                       # Transaction distribution
system.tol2bus.trans_dist::WriteResp              447                       # Transaction distribution
system.tol2bus.trans_dist::Writeback           277541                       # Transaction distribution
system.tol2bus.trans_dist::WriteInvalidateReq         1922                       # Transaction distribution
system.tol2bus.trans_dist::UpgradeReq             659                       # Transaction distribution
system.tol2bus.trans_dist::SCUpgradeReq           251                       # Transaction distribution
system.tol2bus.trans_dist::UpgradeResp            910                       # Transaction distribution
system.tol2bus.trans_dist::SCUpgradeFailReq            2                       # Transaction distribution
system.tol2bus.trans_dist::UpgradeFailResp            2                       # Transaction distribution
system.tol2bus.trans_dist::ReadExReq           201245                       # Transaction distribution
system.tol2bus.trans_dist::ReadExResp          201245                       # Transaction distribution
system.tol2bus.trans_dist::BadAddressError           30                       # Transaction distribution
system.tol2bus.pkt_count_system.cpu0.icache.mem_side::system.l2.cpu_side        14333                       # Packet count per connected master and slave (bytes)
system.tol2bus.pkt_count_system.cpu0.dcache.mem_side::system.l2.cpu_side        34205                       # Packet count per connected master and slave (bytes)
system.tol2bus.pkt_count_system.cpu1.icache.mem_side::system.l2.cpu_side         1924                       # Packet count per connected master and slave (bytes)
system.tol2bus.pkt_count_system.cpu1.dcache.mem_side::system.l2.cpu_side          904                       # Packet count per connected master and slave (bytes)
system.tol2bus.pkt_count_system.cpu2.icache.mem_side::system.l2.cpu_side      2013395                       # Packet count per connected master and slave (bytes)
system.tol2bus.pkt_count_system.cpu2.dcache.mem_side::system.l2.cpu_side      1554402                       # Packet count per connected master and slave (bytes)
system.tol2bus.pkt_count_system.cpu3.icache.mem_side::system.l2.cpu_side         5358                       # Packet count per connected master and slave (bytes)
system.tol2bus.pkt_count_system.cpu3.dcache.mem_side::system.l2.cpu_side         7047                       # Packet count per connected master and slave (bytes)
system.tol2bus.pkt_count::total               3631568                       # Packet count per connected master and slave (bytes)
system.tol2bus.pkt_size_system.cpu0.icache.mem_side::system.l2.cpu_side       458624                       # Cumulative packet size per connected master and slave (bytes)
system.tol2bus.pkt_size_system.cpu0.dcache.mem_side::system.l2.cpu_side      1286031                       # Cumulative packet size per connected master and slave (bytes)
system.tol2bus.pkt_size_system.cpu1.icache.mem_side::system.l2.cpu_side        61568                       # Cumulative packet size per connected master and slave (bytes)
system.tol2bus.pkt_size_system.cpu1.dcache.mem_side::system.l2.cpu_side        21896                       # Cumulative packet size per connected master and slave (bytes)
system.tol2bus.pkt_size_system.cpu2.icache.mem_side::system.l2.cpu_side     64425920                       # Cumulative packet size per connected master and slave (bytes)
system.tol2bus.pkt_size_system.cpu2.dcache.mem_side::system.l2.cpu_side     58152517                       # Cumulative packet size per connected master and slave (bytes)
system.tol2bus.pkt_size_system.cpu3.icache.mem_side::system.l2.cpu_side       171264                       # Cumulative packet size per connected master and slave (bytes)
system.tol2bus.pkt_size_system.cpu3.dcache.mem_side::system.l2.cpu_side       241816                       # Cumulative packet size per connected master and slave (bytes)
system.tol2bus.pkt_size::total              124819636                       # Cumulative packet size per connected master and slave (bytes)
system.tol2bus.snoops                            7486                       # Total snoops (count)
system.tol2bus.snoop_fanout::samples          1959262                       # Request fanout histogram
system.tol2bus.snoop_fanout::mean            7.000985                       # Request fanout histogram
system.tol2bus.snoop_fanout::stdev           0.031370                       # Request fanout histogram
system.tol2bus.snoop_fanout::underflows             0      0.00%      0.00% # Request fanout histogram
system.tol2bus.snoop_fanout::0                      0      0.00%      0.00% # Request fanout histogram
system.tol2bus.snoop_fanout::1                      0      0.00%      0.00% # Request fanout histogram
system.tol2bus.snoop_fanout::2                      0      0.00%      0.00% # Request fanout histogram
system.tol2bus.snoop_fanout::3                      0      0.00%      0.00% # Request fanout histogram
system.tol2bus.snoop_fanout::4                      0      0.00%      0.00% # Request fanout histogram
system.tol2bus.snoop_fanout::5                      0      0.00%      0.00% # Request fanout histogram
system.tol2bus.snoop_fanout::6                      0      0.00%      0.00% # Request fanout histogram
system.tol2bus.snoop_fanout::7                1957332     99.90%     99.90% # Request fanout histogram
system.tol2bus.snoop_fanout::8                   1930      0.10%    100.00% # Request fanout histogram
system.tol2bus.snoop_fanout::overflows              0      0.00%    100.00% # Request fanout histogram
system.tol2bus.snoop_fanout::min_value              7                       # Request fanout histogram
system.tol2bus.snoop_fanout::max_value              8                       # Request fanout histogram
system.tol2bus.snoop_fanout::total            1959262                       # Request fanout histogram
system.tol2bus.reqLayer0.occupancy         1256430999                       # Layer occupancy (ticks)
system.tol2bus.reqLayer0.utilization              2.3                       # Layer utilization (%)
system.tol2bus.respLayer0.occupancy          11668277                       # Layer occupancy (ticks)
system.tol2bus.respLayer0.utilization             0.0                       # Layer utilization (%)
system.tol2bus.respLayer1.occupancy          21076446                       # Layer occupancy (ticks)
system.tol2bus.respLayer1.utilization             0.0                       # Layer utilization (%)
system.tol2bus.respLayer2.occupancy           1617369                       # Layer occupancy (ticks)
system.tol2bus.respLayer2.utilization             0.0                       # Layer utilization (%)
system.tol2bus.respLayer3.occupancy            609768                       # Layer occupancy (ticks)
system.tol2bus.respLayer3.utilization             0.0                       # Layer utilization (%)
system.tol2bus.respLayer4.occupancy        1546891065                       # Layer occupancy (ticks)
system.tol2bus.respLayer4.utilization             2.8                       # Layer utilization (%)
system.tol2bus.respLayer5.occupancy        1044939347                       # Layer occupancy (ticks)
system.tol2bus.respLayer5.utilization             1.9                       # Layer utilization (%)
system.tol2bus.respLayer6.occupancy           4362363                       # Layer occupancy (ticks)
system.tol2bus.respLayer6.utilization             0.0                       # Layer utilization (%)
system.tol2bus.respLayer7.occupancy           4571803                       # Layer occupancy (ticks)
system.tol2bus.respLayer7.utilization             0.0                       # Layer utilization (%)
system.tsunami.ethernet.descDMAReads                0                       # Number of descriptors the device read w/ DMA
system.tsunami.ethernet.descDMAWrites               0                       # Number of descriptors the device wrote w/ DMA
system.tsunami.ethernet.descDmaReadBytes            0                       # number of descriptor bytes read w/ DMA
system.tsunami.ethernet.descDmaWriteBytes            0                       # number of descriptor bytes write w/ DMA
system.tsunami.ethernet.postedSwi                   0                       # number of software interrupts posted to CPU
system.tsunami.ethernet.coalescedSwi              nan                       # average number of Swi's coalesced into each post
system.tsunami.ethernet.totalSwi                    0                       # total number of Swi written to ISR
system.tsunami.ethernet.postedRxIdle                0                       # number of rxIdle interrupts posted to CPU
system.tsunami.ethernet.coalescedRxIdle           nan                       # average number of RxIdle's coalesced into each post
system.tsunami.ethernet.totalRxIdle                 0                       # total number of RxIdle written to ISR
system.tsunami.ethernet.postedRxOk                  0                       # number of RxOk interrupts posted to CPU
system.tsunami.ethernet.coalescedRxOk             nan                       # average number of RxOk's coalesced into each post
system.tsunami.ethernet.totalRxOk                   0                       # total number of RxOk written to ISR
system.tsunami.ethernet.postedRxDesc                0                       # number of RxDesc interrupts posted to CPU
system.tsunami.ethernet.coalescedRxDesc           nan                       # average number of RxDesc's coalesced into each post
system.tsunami.ethernet.totalRxDesc                 0                       # total number of RxDesc written to ISR
system.tsunami.ethernet.postedTxOk                  0                       # number of TxOk interrupts posted to CPU
system.tsunami.ethernet.coalescedTxOk             nan                       # average number of TxOk's coalesced into each post
system.tsunami.ethernet.totalTxOk                   0                       # total number of TxOk written to ISR
system.tsunami.ethernet.postedTxIdle                0                       # number of TxIdle interrupts posted to CPU
system.tsunami.ethernet.coalescedTxIdle           nan                       # average number of TxIdle's coalesced into each post
system.tsunami.ethernet.totalTxIdle                 0                       # total number of TxIdle written to ISR
system.tsunami.ethernet.postedTxDesc                0                       # number of TxDesc interrupts posted to CPU
system.tsunami.ethernet.coalescedTxDesc           nan                       # average number of TxDesc's coalesced into each post
system.tsunami.ethernet.totalTxDesc                 0                       # total number of TxDesc written to ISR
system.tsunami.ethernet.postedRxOrn                 0                       # number of RxOrn posted to CPU
system.tsunami.ethernet.coalescedRxOrn            nan                       # average number of RxOrn's coalesced into each post
system.tsunami.ethernet.totalRxOrn                  0                       # total number of RxOrn written to ISR
system.tsunami.ethernet.coalescedTotal            nan                       # average number of interrupts coalesced into each post
system.tsunami.ethernet.postedInterrupts            0                       # number of posts to CPU
system.tsunami.ethernet.droppedPackets              0                       # number of packets dropped
system.switch_cpus0.kern.inst.arm                   0                       # number of arm instructions executed
system.switch_cpus0.kern.inst.quiesce               0                       # number of quiesce instructions executed
system.switch_cpus0.kern.inst.hwrei                 0                       # number of hwrei instructions executed
system.switch_cpus0.kern.mode_switch::kernel            0                       # number of protection mode switches
system.switch_cpus0.kern.mode_switch::user            0                       # number of protection mode switches
system.switch_cpus0.kern.mode_switch::idle            0                       # number of protection mode switches
system.switch_cpus0.kern.mode_good::kernel            0                      
system.switch_cpus0.kern.mode_good::user            0                      
system.switch_cpus0.kern.mode_good::idle            0                      
system.switch_cpus0.kern.mode_switch_good::kernel          nan                       # fraction of useful protection mode switches
system.switch_cpus0.kern.mode_switch_good::user          nan                       # fraction of useful protection mode switches
system.switch_cpus0.kern.mode_switch_good::idle          nan                       # fraction of useful protection mode switches
system.switch_cpus0.kern.mode_switch_good::total          nan                       # fraction of useful protection mode switches
system.switch_cpus0.kern.mode_ticks::kernel            0                       # number of ticks spent at the given mode
system.switch_cpus0.kern.mode_ticks::user            0                       # number of ticks spent at the given mode
system.switch_cpus0.kern.mode_ticks::idle            0                       # number of ticks spent at the given mode
system.switch_cpus0.kern.swap_context               0                       # number of times the context was actually changed
system.switch_cpus1.kern.inst.arm                   0                       # number of arm instructions executed
system.switch_cpus1.kern.inst.quiesce               0                       # number of quiesce instructions executed
system.switch_cpus1.kern.inst.hwrei                 0                       # number of hwrei instructions executed
system.switch_cpus1.kern.mode_switch::kernel            0                       # number of protection mode switches
system.switch_cpus1.kern.mode_switch::user            0                       # number of protection mode switches
system.switch_cpus1.kern.mode_switch::idle            0                       # number of protection mode switches
system.switch_cpus1.kern.mode_good::kernel            0                      
system.switch_cpus1.kern.mode_good::user            0                      
system.switch_cpus1.kern.mode_good::idle            0                      
system.switch_cpus1.kern.mode_switch_good::kernel          nan                       # fraction of useful protection mode switches
system.switch_cpus1.kern.mode_switch_good::user          nan                       # fraction of useful protection mode switches
system.switch_cpus1.kern.mode_switch_good::idle          nan                       # fraction of useful protection mode switches
system.switch_cpus1.kern.mode_switch_good::total          nan                       # fraction of useful protection mode switches
system.switch_cpus1.kern.mode_ticks::kernel            0                       # number of ticks spent at the given mode
system.switch_cpus1.kern.mode_ticks::user            0                       # number of ticks spent at the given mode
system.switch_cpus1.kern.mode_ticks::idle            0                       # number of ticks spent at the given mode
system.switch_cpus1.kern.swap_context               0                       # number of times the context was actually changed
system.switch_cpus2.kern.inst.arm                   0                       # number of arm instructions executed
system.switch_cpus2.kern.inst.quiesce               0                       # number of quiesce instructions executed
system.switch_cpus2.kern.inst.hwrei                 0                       # number of hwrei instructions executed
system.switch_cpus2.kern.mode_switch::kernel            0                       # number of protection mode switches
system.switch_cpus2.kern.mode_switch::user            0                       # number of protection mode switches
system.switch_cpus2.kern.mode_switch::idle            0                       # number of protection mode switches
system.switch_cpus2.kern.mode_good::kernel            0                      
system.switch_cpus2.kern.mode_good::user            0                      
system.switch_cpus2.kern.mode_good::idle            0                      
system.switch_cpus2.kern.mode_switch_good::kernel          nan                       # fraction of useful protection mode switches
system.switch_cpus2.kern.mode_switch_good::user          nan                       # fraction of useful protection mode switches
system.switch_cpus2.kern.mode_switch_good::idle          nan                       # fraction of useful protection mode switches
system.switch_cpus2.kern.mode_switch_good::total          nan                       # fraction of useful protection mode switches
system.switch_cpus2.kern.mode_ticks::kernel            0                       # number of ticks spent at the given mode
system.switch_cpus2.kern.mode_ticks::user            0                       # number of ticks spent at the given mode
system.switch_cpus2.kern.mode_ticks::idle            0                       # number of ticks spent at the given mode
system.switch_cpus2.kern.swap_context               0                       # number of times the context was actually changed
system.switch_cpus3.kern.inst.arm                   0                       # number of arm instructions executed
system.switch_cpus3.kern.inst.quiesce               0                       # number of quiesce instructions executed
system.switch_cpus3.kern.inst.hwrei                 0                       # number of hwrei instructions executed
system.switch_cpus3.kern.mode_switch::kernel            0                       # number of protection mode switches
system.switch_cpus3.kern.mode_switch::user            0                       # number of protection mode switches
system.switch_cpus3.kern.mode_switch::idle            0                       # number of protection mode switches
system.switch_cpus3.kern.mode_good::kernel            0                      
system.switch_cpus3.kern.mode_good::user            0                      
system.switch_cpus3.kern.mode_good::idle            0                      
system.switch_cpus3.kern.mode_switch_good::kernel          nan                       # fraction of useful protection mode switches
system.switch_cpus3.kern.mode_switch_good::user          nan                       # fraction of useful protection mode switches
system.switch_cpus3.kern.mode_switch_good::idle          nan                       # fraction of useful protection mode switches
system.switch_cpus3.kern.mode_switch_good::total          nan                       # fraction of useful protection mode switches
system.switch_cpus3.kern.mode_ticks::kernel            0                       # number of ticks spent at the given mode
system.switch_cpus3.kern.mode_ticks::user            0                       # number of ticks spent at the given mode
system.switch_cpus3.kern.mode_ticks::idle            0                       # number of ticks spent at the given mode
system.switch_cpus3.kern.swap_context               0                       # number of times the context was actually changed

---------- End Simulation Statistics   ----------
