
---------- Begin Simulation Statistics ----------
sim_seconds                                  0.001222                       # Number of seconds simulated
sim_ticks                                  1221650000                       # Number of ticks simulated
final_tick                               2255688379000                       # Number of ticks from beginning of simulation (restored from checkpoints and never reset)
sim_freq                                 1000000000000                       # Frequency of simulated ticks
host_inst_rate                               29306731                       # Simulator instruction rate (inst/s)
host_op_rate                                 29306667                       # Simulator op (including micro ops) rate (op/s)
host_tick_rate                              365190984                       # Simulator tick rate (ticks/s)
host_mem_usage                                 729108                       # Number of bytes of host memory used
host_seconds                                     3.35                       # Real time elapsed on the host
sim_insts                                    98037530                       # Number of instructions simulated
sim_ops                                      98037530                       # Number of ops (including micro ops) simulated
system.voltage_domain.voltage                       1                       # Voltage in Volts
system.clk_domain.clock                          1000                       # Clock period in ticks
system.mem_ctrls.bytes_read::switch_cpus.inst       455680                       # Number of bytes read from this memory
system.mem_ctrls.bytes_read::switch_cpus.data      1003840                       # Number of bytes read from this memory
system.mem_ctrls.bytes_read::total            1459520                       # Number of bytes read from this memory
system.mem_ctrls.bytes_inst_read::switch_cpus.inst       455680                       # Number of instructions bytes read from this memory
system.mem_ctrls.bytes_inst_read::total        455680                       # Number of instructions bytes read from this memory
system.mem_ctrls.bytes_written::writebacks       609088                       # Number of bytes written to this memory
system.mem_ctrls.bytes_written::total          609088                       # Number of bytes written to this memory
system.mem_ctrls.num_reads::switch_cpus.inst         7120                       # Number of read requests responded to by this memory
system.mem_ctrls.num_reads::switch_cpus.data        15685                       # Number of read requests responded to by this memory
system.mem_ctrls.num_reads::total               22805                       # Number of read requests responded to by this memory
system.mem_ctrls.num_writes::writebacks          9517                       # Number of write requests responded to by this memory
system.mem_ctrls.num_writes::total               9517                       # Number of write requests responded to by this memory
system.mem_ctrls.bw_read::switch_cpus.inst    373003724                       # Total read bandwidth from this memory (bytes/s)
system.mem_ctrls.bw_read::switch_cpus.data    821708345                       # Total read bandwidth from this memory (bytes/s)
system.mem_ctrls.bw_read::total            1194712070                       # Total read bandwidth from this memory (bytes/s)
system.mem_ctrls.bw_inst_read::switch_cpus.inst    373003724                       # Instruction read bandwidth from this memory (bytes/s)
system.mem_ctrls.bw_inst_read::total        373003724                       # Instruction read bandwidth from this memory (bytes/s)
system.mem_ctrls.bw_write::writebacks       498578152                       # Write bandwidth from this memory (bytes/s)
system.mem_ctrls.bw_write::total            498578152                       # Write bandwidth from this memory (bytes/s)
system.mem_ctrls.bw_total::writebacks       498578152                       # Total bandwidth to/from this memory (bytes/s)
system.mem_ctrls.bw_total::switch_cpus.inst    373003724                       # Total bandwidth to/from this memory (bytes/s)
system.mem_ctrls.bw_total::switch_cpus.data    821708345                       # Total bandwidth to/from this memory (bytes/s)
system.mem_ctrls.bw_total::total           1693290222                       # Total bandwidth to/from this memory (bytes/s)
system.mem_ctrls.readReqs                       22805                       # Number of read requests accepted
system.mem_ctrls.writeReqs                       9517                       # Number of write requests accepted
system.mem_ctrls.readBursts                     22805                       # Number of DRAM read bursts, including those serviced by the write queue
system.mem_ctrls.writeBursts                     9517                       # Number of DRAM write bursts, including those merged in the write queue
system.mem_ctrls.bytesReadDRAM                1455360                       # Total number of bytes read from DRAM
system.mem_ctrls.bytesReadWrQ                    4160                       # Total number of bytes read from write queue
system.mem_ctrls.bytesWritten                  607360                       # Total number of bytes written to DRAM
system.mem_ctrls.bytesReadSys                 1459520                       # Total read bytes from the system interface side
system.mem_ctrls.bytesWrittenSys               609088                       # Total written bytes from the system interface side
system.mem_ctrls.servicedByWrQ                     65                       # Number of DRAM read bursts serviced by the write queue
system.mem_ctrls.mergedWrBursts                     2                       # Number of DRAM write bursts merged with an existing one
system.mem_ctrls.neitherReadNorWriteReqs            9                       # Number of requests that are neither read nor write
system.mem_ctrls.perBankRdBursts::0              1509                       # Per bank write bursts
system.mem_ctrls.perBankRdBursts::1              1080                       # Per bank write bursts
system.mem_ctrls.perBankRdBursts::2              1592                       # Per bank write bursts
system.mem_ctrls.perBankRdBursts::3              1457                       # Per bank write bursts
system.mem_ctrls.perBankRdBursts::4              1587                       # Per bank write bursts
system.mem_ctrls.perBankRdBursts::5              1182                       # Per bank write bursts
system.mem_ctrls.perBankRdBursts::6              1544                       # Per bank write bursts
system.mem_ctrls.perBankRdBursts::7              1159                       # Per bank write bursts
system.mem_ctrls.perBankRdBursts::8              1386                       # Per bank write bursts
system.mem_ctrls.perBankRdBursts::9              1456                       # Per bank write bursts
system.mem_ctrls.perBankRdBursts::10             1398                       # Per bank write bursts
system.mem_ctrls.perBankRdBursts::11             1705                       # Per bank write bursts
system.mem_ctrls.perBankRdBursts::12             1300                       # Per bank write bursts
system.mem_ctrls.perBankRdBursts::13             2087                       # Per bank write bursts
system.mem_ctrls.perBankRdBursts::14             1319                       # Per bank write bursts
system.mem_ctrls.perBankRdBursts::15              979                       # Per bank write bursts
system.mem_ctrls.perBankWrBursts::0               566                       # Per bank write bursts
system.mem_ctrls.perBankWrBursts::1               584                       # Per bank write bursts
system.mem_ctrls.perBankWrBursts::2               877                       # Per bank write bursts
system.mem_ctrls.perBankWrBursts::3              1040                       # Per bank write bursts
system.mem_ctrls.perBankWrBursts::4               911                       # Per bank write bursts
system.mem_ctrls.perBankWrBursts::5               643                       # Per bank write bursts
system.mem_ctrls.perBankWrBursts::6               803                       # Per bank write bursts
system.mem_ctrls.perBankWrBursts::7               438                       # Per bank write bursts
system.mem_ctrls.perBankWrBursts::8               395                       # Per bank write bursts
system.mem_ctrls.perBankWrBursts::9               696                       # Per bank write bursts
system.mem_ctrls.perBankWrBursts::10              294                       # Per bank write bursts
system.mem_ctrls.perBankWrBursts::11              430                       # Per bank write bursts
system.mem_ctrls.perBankWrBursts::12              273                       # Per bank write bursts
system.mem_ctrls.perBankWrBursts::13              514                       # Per bank write bursts
system.mem_ctrls.perBankWrBursts::14              534                       # Per bank write bursts
system.mem_ctrls.perBankWrBursts::15              492                       # Per bank write bursts
system.mem_ctrls.numRdRetry                         0                       # Number of times read queue was full causing retry
system.mem_ctrls.numWrRetry                         0                       # Number of times write queue was full causing retry
system.mem_ctrls.totGap                    1221618000                       # Total gap between requests
system.mem_ctrls.readPktSize::0                     0                       # Read request sizes (log2)
system.mem_ctrls.readPktSize::1                     0                       # Read request sizes (log2)
system.mem_ctrls.readPktSize::2                     0                       # Read request sizes (log2)
system.mem_ctrls.readPktSize::3                     0                       # Read request sizes (log2)
system.mem_ctrls.readPktSize::4                     0                       # Read request sizes (log2)
system.mem_ctrls.readPktSize::5                     0                       # Read request sizes (log2)
system.mem_ctrls.readPktSize::6                 22805                       # Read request sizes (log2)
system.mem_ctrls.writePktSize::0                    0                       # Write request sizes (log2)
system.mem_ctrls.writePktSize::1                    0                       # Write request sizes (log2)
system.mem_ctrls.writePktSize::2                    0                       # Write request sizes (log2)
system.mem_ctrls.writePktSize::3                    0                       # Write request sizes (log2)
system.mem_ctrls.writePktSize::4                    0                       # Write request sizes (log2)
system.mem_ctrls.writePktSize::5                    0                       # Write request sizes (log2)
system.mem_ctrls.writePktSize::6                 9517                       # Write request sizes (log2)
system.mem_ctrls.rdQLenPdf::0                   11615                       # What read queue length does an incoming req see
system.mem_ctrls.rdQLenPdf::1                    6294                       # What read queue length does an incoming req see
system.mem_ctrls.rdQLenPdf::2                    3189                       # What read queue length does an incoming req see
system.mem_ctrls.rdQLenPdf::3                    1592                       # What read queue length does an incoming req see
system.mem_ctrls.rdQLenPdf::4                      44                       # What read queue length does an incoming req see
system.mem_ctrls.rdQLenPdf::5                       5                       # What read queue length does an incoming req see
system.mem_ctrls.rdQLenPdf::6                       1                       # What read queue length does an incoming req see
system.mem_ctrls.rdQLenPdf::7                       0                       # What read queue length does an incoming req see
system.mem_ctrls.rdQLenPdf::8                       0                       # What read queue length does an incoming req see
system.mem_ctrls.rdQLenPdf::9                       0                       # What read queue length does an incoming req see
system.mem_ctrls.rdQLenPdf::10                      0                       # What read queue length does an incoming req see
system.mem_ctrls.rdQLenPdf::11                      0                       # What read queue length does an incoming req see
system.mem_ctrls.rdQLenPdf::12                      0                       # What read queue length does an incoming req see
system.mem_ctrls.rdQLenPdf::13                      0                       # What read queue length does an incoming req see
system.mem_ctrls.rdQLenPdf::14                      0                       # What read queue length does an incoming req see
system.mem_ctrls.rdQLenPdf::15                      0                       # What read queue length does an incoming req see
system.mem_ctrls.rdQLenPdf::16                      0                       # What read queue length does an incoming req see
system.mem_ctrls.rdQLenPdf::17                      0                       # What read queue length does an incoming req see
system.mem_ctrls.rdQLenPdf::18                      0                       # What read queue length does an incoming req see
system.mem_ctrls.rdQLenPdf::19                      0                       # What read queue length does an incoming req see
system.mem_ctrls.rdQLenPdf::20                      0                       # What read queue length does an incoming req see
system.mem_ctrls.rdQLenPdf::21                      0                       # What read queue length does an incoming req see
system.mem_ctrls.rdQLenPdf::22                      0                       # What read queue length does an incoming req see
system.mem_ctrls.rdQLenPdf::23                      0                       # What read queue length does an incoming req see
system.mem_ctrls.rdQLenPdf::24                      0                       # What read queue length does an incoming req see
system.mem_ctrls.rdQLenPdf::25                      0                       # What read queue length does an incoming req see
system.mem_ctrls.rdQLenPdf::26                      0                       # What read queue length does an incoming req see
system.mem_ctrls.rdQLenPdf::27                      0                       # What read queue length does an incoming req see
system.mem_ctrls.rdQLenPdf::28                      0                       # What read queue length does an incoming req see
system.mem_ctrls.rdQLenPdf::29                      0                       # What read queue length does an incoming req see
system.mem_ctrls.rdQLenPdf::30                      0                       # What read queue length does an incoming req see
system.mem_ctrls.rdQLenPdf::31                      0                       # What read queue length does an incoming req see
system.mem_ctrls.wrQLenPdf::0                       1                       # What write queue length does an incoming req see
system.mem_ctrls.wrQLenPdf::1                       1                       # What write queue length does an incoming req see
system.mem_ctrls.wrQLenPdf::2                       1                       # What write queue length does an incoming req see
system.mem_ctrls.wrQLenPdf::3                       1                       # What write queue length does an incoming req see
system.mem_ctrls.wrQLenPdf::4                       1                       # What write queue length does an incoming req see
system.mem_ctrls.wrQLenPdf::5                       1                       # What write queue length does an incoming req see
system.mem_ctrls.wrQLenPdf::6                       1                       # What write queue length does an incoming req see
system.mem_ctrls.wrQLenPdf::7                       1                       # What write queue length does an incoming req see
system.mem_ctrls.wrQLenPdf::8                       1                       # What write queue length does an incoming req see
system.mem_ctrls.wrQLenPdf::9                       1                       # What write queue length does an incoming req see
system.mem_ctrls.wrQLenPdf::10                      1                       # What write queue length does an incoming req see
system.mem_ctrls.wrQLenPdf::11                      1                       # What write queue length does an incoming req see
system.mem_ctrls.wrQLenPdf::12                      1                       # What write queue length does an incoming req see
system.mem_ctrls.wrQLenPdf::13                      1                       # What write queue length does an incoming req see
system.mem_ctrls.wrQLenPdf::14                      1                       # What write queue length does an incoming req see
system.mem_ctrls.wrQLenPdf::15                     52                       # What write queue length does an incoming req see
system.mem_ctrls.wrQLenPdf::16                     59                       # What write queue length does an incoming req see
system.mem_ctrls.wrQLenPdf::17                    273                       # What write queue length does an incoming req see
system.mem_ctrls.wrQLenPdf::18                    417                       # What write queue length does an incoming req see
system.mem_ctrls.wrQLenPdf::19                    525                       # What write queue length does an incoming req see
system.mem_ctrls.wrQLenPdf::20                    588                       # What write queue length does an incoming req see
system.mem_ctrls.wrQLenPdf::21                    599                       # What write queue length does an incoming req see
system.mem_ctrls.wrQLenPdf::22                    602                       # What write queue length does an incoming req see
system.mem_ctrls.wrQLenPdf::23                    615                       # What write queue length does an incoming req see
system.mem_ctrls.wrQLenPdf::24                    636                       # What write queue length does an incoming req see
system.mem_ctrls.wrQLenPdf::25                    631                       # What write queue length does an incoming req see
system.mem_ctrls.wrQLenPdf::26                    722                       # What write queue length does an incoming req see
system.mem_ctrls.wrQLenPdf::27                    637                       # What write queue length does an incoming req see
system.mem_ctrls.wrQLenPdf::28                    648                       # What write queue length does an incoming req see
system.mem_ctrls.wrQLenPdf::29                    679                       # What write queue length does an incoming req see
system.mem_ctrls.wrQLenPdf::30                    627                       # What write queue length does an incoming req see
system.mem_ctrls.wrQLenPdf::31                    602                       # What write queue length does an incoming req see
system.mem_ctrls.wrQLenPdf::32                    587                       # What write queue length does an incoming req see
system.mem_ctrls.wrQLenPdf::33                      1                       # What write queue length does an incoming req see
system.mem_ctrls.wrQLenPdf::34                      0                       # What write queue length does an incoming req see
system.mem_ctrls.wrQLenPdf::35                      0                       # What write queue length does an incoming req see
system.mem_ctrls.wrQLenPdf::36                      0                       # What write queue length does an incoming req see
system.mem_ctrls.wrQLenPdf::37                      0                       # What write queue length does an incoming req see
system.mem_ctrls.wrQLenPdf::38                      0                       # What write queue length does an incoming req see
system.mem_ctrls.wrQLenPdf::39                      0                       # What write queue length does an incoming req see
system.mem_ctrls.wrQLenPdf::40                      0                       # What write queue length does an incoming req see
system.mem_ctrls.wrQLenPdf::41                      0                       # What write queue length does an incoming req see
system.mem_ctrls.wrQLenPdf::42                      0                       # What write queue length does an incoming req see
system.mem_ctrls.wrQLenPdf::43                      0                       # What write queue length does an incoming req see
system.mem_ctrls.wrQLenPdf::44                      0                       # What write queue length does an incoming req see
system.mem_ctrls.wrQLenPdf::45                      0                       # What write queue length does an incoming req see
system.mem_ctrls.wrQLenPdf::46                      0                       # What write queue length does an incoming req see
system.mem_ctrls.wrQLenPdf::47                      0                       # What write queue length does an incoming req see
system.mem_ctrls.wrQLenPdf::48                      0                       # What write queue length does an incoming req see
system.mem_ctrls.wrQLenPdf::49                      0                       # What write queue length does an incoming req see
system.mem_ctrls.wrQLenPdf::50                      0                       # What write queue length does an incoming req see
system.mem_ctrls.wrQLenPdf::51                      0                       # What write queue length does an incoming req see
system.mem_ctrls.wrQLenPdf::52                      0                       # What write queue length does an incoming req see
system.mem_ctrls.wrQLenPdf::53                      0                       # What write queue length does an incoming req see
system.mem_ctrls.wrQLenPdf::54                      0                       # What write queue length does an incoming req see
system.mem_ctrls.wrQLenPdf::55                      0                       # What write queue length does an incoming req see
system.mem_ctrls.wrQLenPdf::56                      0                       # What write queue length does an incoming req see
system.mem_ctrls.wrQLenPdf::57                      0                       # What write queue length does an incoming req see
system.mem_ctrls.wrQLenPdf::58                      0                       # What write queue length does an incoming req see
system.mem_ctrls.wrQLenPdf::59                      0                       # What write queue length does an incoming req see
system.mem_ctrls.wrQLenPdf::60                      0                       # What write queue length does an incoming req see
system.mem_ctrls.wrQLenPdf::61                      0                       # What write queue length does an incoming req see
system.mem_ctrls.wrQLenPdf::62                      0                       # What write queue length does an incoming req see
system.mem_ctrls.wrQLenPdf::63                      0                       # What write queue length does an incoming req see
system.mem_ctrls.bytesPerActivate::samples         8192                       # Bytes accessed per row activation
system.mem_ctrls.bytesPerActivate::mean    251.531250                       # Bytes accessed per row activation
system.mem_ctrls.bytesPerActivate::gmean   146.620455                       # Bytes accessed per row activation
system.mem_ctrls.bytesPerActivate::stdev   301.791564                       # Bytes accessed per row activation
system.mem_ctrls.bytesPerActivate::0-127         3824     46.68%     46.68% # Bytes accessed per row activation
system.mem_ctrls.bytesPerActivate::128-255         1990     24.29%     70.97% # Bytes accessed per row activation
system.mem_ctrls.bytesPerActivate::256-383          677      8.26%     79.24% # Bytes accessed per row activation
system.mem_ctrls.bytesPerActivate::384-511          345      4.21%     83.45% # Bytes accessed per row activation
system.mem_ctrls.bytesPerActivate::512-639          239      2.92%     86.36% # Bytes accessed per row activation
system.mem_ctrls.bytesPerActivate::640-767          143      1.75%     88.11% # Bytes accessed per row activation
system.mem_ctrls.bytesPerActivate::768-895          115      1.40%     89.51% # Bytes accessed per row activation
system.mem_ctrls.bytesPerActivate::896-1023          105      1.28%     90.80% # Bytes accessed per row activation
system.mem_ctrls.bytesPerActivate::1024-1151          754      9.20%    100.00% # Bytes accessed per row activation
system.mem_ctrls.bytesPerActivate::total         8192                       # Bytes accessed per row activation
system.mem_ctrls.rdPerTurnAround::samples          585                       # Reads before turning the bus around for writes
system.mem_ctrls.rdPerTurnAround::mean      38.839316                       # Reads before turning the bus around for writes
system.mem_ctrls.rdPerTurnAround::gmean     32.038108                       # Reads before turning the bus around for writes
system.mem_ctrls.rdPerTurnAround::stdev     26.674371                       # Reads before turning the bus around for writes
system.mem_ctrls.rdPerTurnAround::8-15             44      7.52%      7.52% # Reads before turning the bus around for writes
system.mem_ctrls.rdPerTurnAround::16-23           173     29.57%     37.09% # Reads before turning the bus around for writes
system.mem_ctrls.rdPerTurnAround::24-31            82     14.02%     51.11% # Reads before turning the bus around for writes
system.mem_ctrls.rdPerTurnAround::32-39            60     10.26%     61.37% # Reads before turning the bus around for writes
system.mem_ctrls.rdPerTurnAround::40-47            55      9.40%     70.77% # Reads before turning the bus around for writes
system.mem_ctrls.rdPerTurnAround::48-55            53      9.06%     79.83% # Reads before turning the bus around for writes
system.mem_ctrls.rdPerTurnAround::56-63            34      5.81%     85.64% # Reads before turning the bus around for writes
system.mem_ctrls.rdPerTurnAround::64-71            23      3.93%     89.57% # Reads before turning the bus around for writes
system.mem_ctrls.rdPerTurnAround::72-79            23      3.93%     93.50% # Reads before turning the bus around for writes
system.mem_ctrls.rdPerTurnAround::80-87             7      1.20%     94.70% # Reads before turning the bus around for writes
system.mem_ctrls.rdPerTurnAround::88-95             8      1.37%     96.07% # Reads before turning the bus around for writes
system.mem_ctrls.rdPerTurnAround::96-103            3      0.51%     96.58% # Reads before turning the bus around for writes
system.mem_ctrls.rdPerTurnAround::104-111            5      0.85%     97.44% # Reads before turning the bus around for writes
system.mem_ctrls.rdPerTurnAround::112-119            3      0.51%     97.95% # Reads before turning the bus around for writes
system.mem_ctrls.rdPerTurnAround::120-127            5      0.85%     98.80% # Reads before turning the bus around for writes
system.mem_ctrls.rdPerTurnAround::128-135            3      0.51%     99.32% # Reads before turning the bus around for writes
system.mem_ctrls.rdPerTurnAround::136-143            2      0.34%     99.66% # Reads before turning the bus around for writes
system.mem_ctrls.rdPerTurnAround::176-183            1      0.17%     99.83% # Reads before turning the bus around for writes
system.mem_ctrls.rdPerTurnAround::216-223            1      0.17%    100.00% # Reads before turning the bus around for writes
system.mem_ctrls.rdPerTurnAround::total           585                       # Reads before turning the bus around for writes
system.mem_ctrls.wrPerTurnAround::samples          585                       # Writes before turning the bus around for reads
system.mem_ctrls.wrPerTurnAround::mean      16.222222                       # Writes before turning the bus around for reads
system.mem_ctrls.wrPerTurnAround::gmean     16.209319                       # Writes before turning the bus around for reads
system.mem_ctrls.wrPerTurnAround::stdev      0.673764                       # Writes before turning the bus around for reads
system.mem_ctrls.wrPerTurnAround::16              521     89.06%     89.06% # Writes before turning the bus around for reads
system.mem_ctrls.wrPerTurnAround::17               12      2.05%     91.11% # Writes before turning the bus around for reads
system.mem_ctrls.wrPerTurnAround::18               40      6.84%     97.95% # Writes before turning the bus around for reads
system.mem_ctrls.wrPerTurnAround::19               10      1.71%     99.66% # Writes before turning the bus around for reads
system.mem_ctrls.wrPerTurnAround::20                2      0.34%    100.00% # Writes before turning the bus around for reads
system.mem_ctrls.wrPerTurnAround::total           585                       # Writes before turning the bus around for reads
system.mem_ctrls.totQLat                    421445000                       # Total ticks spent queuing
system.mem_ctrls.totMemAccLat               847820000                       # Total ticks spent from burst creation until serviced by the DRAM
system.mem_ctrls.totBusLat                  113700000                       # Total ticks spent in databus transfers
system.mem_ctrls.avgQLat                     18533.20                       # Average queueing delay per DRAM burst
system.mem_ctrls.avgBusLat                    5000.00                       # Average bus latency per DRAM burst
system.mem_ctrls.avgMemAccLat                37283.20                       # Average memory access latency per DRAM burst
system.mem_ctrls.avgRdBW                      1191.31                       # Average DRAM read bandwidth in MiByte/s
system.mem_ctrls.avgWrBW                       497.16                       # Average achieved write bandwidth in MiByte/s
system.mem_ctrls.avgRdBWSys                   1194.71                       # Average system read bandwidth in MiByte/s
system.mem_ctrls.avgWrBWSys                    498.58                       # Average system write bandwidth in MiByte/s
system.mem_ctrls.peakBW                      12800.00                       # Theoretical peak bandwidth in MiByte/s
system.mem_ctrls.busUtil                        13.19                       # Data bus utilization in percentage
system.mem_ctrls.busUtilRead                     9.31                       # Data bus utilization in percentage for reads
system.mem_ctrls.busUtilWrite                    3.88                       # Data bus utilization in percentage for writes
system.mem_ctrls.avgRdQLen                       1.78                       # Average read queue length when enqueuing
system.mem_ctrls.avgWrQLen                      25.50                       # Average write queue length when enqueuing
system.mem_ctrls.readRowHits                    17076                       # Number of row buffer hits during reads
system.mem_ctrls.writeRowHits                    6947                       # Number of row buffer hits during writes
system.mem_ctrls.readRowHitRate                 75.09                       # Row buffer hit rate for reads
system.mem_ctrls.writeRowHitRate                73.01                       # Row buffer hit rate for writes
system.mem_ctrls.avgGap                      37795.25                       # Average gap between requests
system.mem_ctrls.pageHitRate                    74.48                       # Row buffer hit rate, read and write combined
system.mem_ctrls_0.actEnergy                 30693600                       # Energy for activate commands per rank (pJ)
system.mem_ctrls_0.preEnergy                 16747500                       # Energy for precharge commands per rank (pJ)
system.mem_ctrls_0.readEnergy                86275800                       # Energy for read commands per rank (pJ)
system.mem_ctrls_0.writeEnergy               37778400                       # Energy for write commands per rank (pJ)
system.mem_ctrls_0.refreshEnergy             79335360                       # Energy for refresh commands per rank (pJ)
system.mem_ctrls_0.actBackEnergy            798228855                       # Energy for active background per rank (pJ)
system.mem_ctrls_0.preBackEnergy             28763250                       # Energy for precharge background per rank (pJ)
system.mem_ctrls_0.totalEnergy             1077822765                       # Total energy per rank (pJ)
system.mem_ctrls_0.averagePower            887.140735                       # Core power per rank (mW)
system.mem_ctrls_0.memoryStateTime::IDLE     43031250                       # Time in different power states
system.mem_ctrls_0.memoryStateTime::REF      40560000                       # Time in different power states
system.mem_ctrls_0.memoryStateTime::PRE_PDN            0                       # Time in different power states
system.mem_ctrls_0.memoryStateTime::ACT    1131362750                       # Time in different power states
system.mem_ctrls_0.memoryStateTime::ACT_PDN            0                       # Time in different power states
system.mem_ctrls_1.actEnergy                 30867480                       # Energy for activate commands per rank (pJ)
system.mem_ctrls_1.preEnergy                 16842375                       # Energy for precharge commands per rank (pJ)
system.mem_ctrls_1.readEnergy                90285000                       # Energy for read commands per rank (pJ)
system.mem_ctrls_1.writeEnergy               23405760                       # Energy for write commands per rank (pJ)
system.mem_ctrls_1.refreshEnergy             79335360                       # Energy for refresh commands per rank (pJ)
system.mem_ctrls_1.actBackEnergy            810805905                       # Energy for active background per rank (pJ)
system.mem_ctrls_1.preBackEnergy             17719500                       # Energy for precharge background per rank (pJ)
system.mem_ctrls_1.totalEnergy             1069261380                       # Total energy per rank (pJ)
system.mem_ctrls_1.averagePower            880.107563                       # Core power per rank (mW)
system.mem_ctrls_1.memoryStateTime::IDLE     24679750                       # Time in different power states
system.mem_ctrls_1.memoryStateTime::REF      40560000                       # Time in different power states
system.mem_ctrls_1.memoryStateTime::PRE_PDN            0                       # Time in different power states
system.mem_ctrls_1.memoryStateTime::ACT    1149871750                       # Time in different power states
system.mem_ctrls_1.memoryStateTime::ACT_PDN            0                       # Time in different power states
system.cpu_voltage_domain.voltage                   1                       # Voltage in Volts
system.cpu_clk_domain.clock                       500                       # Clock period in ticks
system.cpu.dtb.fetch_hits                           0                       # ITB hits
system.cpu.dtb.fetch_misses                         0                       # ITB misses
system.cpu.dtb.fetch_acv                            0                       # ITB acv
system.cpu.dtb.fetch_accesses                       0                       # ITB accesses
system.cpu.dtb.read_hits                            0                       # DTB read hits
system.cpu.dtb.read_misses                          0                       # DTB read misses
system.cpu.dtb.read_acv                             0                       # DTB read access violations
system.cpu.dtb.read_accesses                        0                       # DTB read accesses
system.cpu.dtb.write_hits                           0                       # DTB write hits
system.cpu.dtb.write_misses                         0                       # DTB write misses
system.cpu.dtb.write_acv                            0                       # DTB write access violations
system.cpu.dtb.write_accesses                       0                       # DTB write accesses
system.cpu.dtb.data_hits                            0                       # DTB hits
system.cpu.dtb.data_misses                          0                       # DTB misses
system.cpu.dtb.data_acv                             0                       # DTB access violations
system.cpu.dtb.data_accesses                        0                       # DTB accesses
system.cpu.itb.fetch_hits                           0                       # ITB hits
system.cpu.itb.fetch_misses                         0                       # ITB misses
system.cpu.itb.fetch_acv                            0                       # ITB acv
system.cpu.itb.fetch_accesses                       0                       # ITB accesses
system.cpu.itb.read_hits                            0                       # DTB read hits
system.cpu.itb.read_misses                          0                       # DTB read misses
system.cpu.itb.read_acv                             0                       # DTB read access violations
system.cpu.itb.read_accesses                        0                       # DTB read accesses
system.cpu.itb.write_hits                           0                       # DTB write hits
system.cpu.itb.write_misses                         0                       # DTB write misses
system.cpu.itb.write_acv                            0                       # DTB write access violations
system.cpu.itb.write_accesses                       0                       # DTB write accesses
system.cpu.itb.data_hits                            0                       # DTB hits
system.cpu.itb.data_misses                          0                       # DTB misses
system.cpu.itb.data_acv                             0                       # DTB access violations
system.cpu.itb.data_accesses                        0                       # DTB accesses
system.cpu.numCycles                                0                       # number of cpu cycles simulated
system.cpu.numWorkItemsStarted                      0                       # number of work items this cpu started
system.cpu.numWorkItemsCompleted                    0                       # number of work items this cpu completed
system.cpu.committedInsts                           0                       # Number of instructions committed
system.cpu.committedOps                             0                       # Number of ops (including micro ops) committed
system.cpu.num_int_alu_accesses                     0                       # Number of integer alu accesses
system.cpu.num_fp_alu_accesses                      0                       # Number of float alu accesses
system.cpu.num_func_calls                           0                       # number of times a function call or return occured
system.cpu.num_conditional_control_insts            0                       # number of instructions that are conditional controls
system.cpu.num_int_insts                            0                       # number of integer instructions
system.cpu.num_fp_insts                             0                       # number of float instructions
system.cpu.num_int_register_reads                   0                       # number of times the integer registers were read
system.cpu.num_int_register_writes                  0                       # number of times the integer registers were written
system.cpu.num_fp_register_reads                    0                       # number of times the floating registers were read
system.cpu.num_fp_register_writes                   0                       # number of times the floating registers were written
system.cpu.num_mem_refs                             0                       # number of memory refs
system.cpu.num_load_insts                           0                       # Number of load instructions
system.cpu.num_store_insts                          0                       # Number of store instructions
system.cpu.num_idle_cycles                          0                       # Number of idle cycles
system.cpu.num_busy_cycles                          0                       # Number of busy cycles
system.cpu.not_idle_fraction                        1                       # Percentage of non-idle cycles
system.cpu.idle_fraction                            0                       # Percentage of idle cycles
system.cpu.op_class::No_OpClass                     0                       # Class of executed instruction
system.cpu.op_class::IntAlu                         0                       # Class of executed instruction
system.cpu.op_class::IntMult                        0                       # Class of executed instruction
system.cpu.op_class::IntDiv                         0                       # Class of executed instruction
system.cpu.op_class::FloatAdd                       0                       # Class of executed instruction
system.cpu.op_class::FloatCmp                       0                       # Class of executed instruction
system.cpu.op_class::FloatCvt                       0                       # Class of executed instruction
system.cpu.op_class::FloatMult                      0                       # Class of executed instruction
system.cpu.op_class::FloatDiv                       0                       # Class of executed instruction
system.cpu.op_class::FloatSqrt                      0                       # Class of executed instruction
system.cpu.op_class::SimdAdd                        0                       # Class of executed instruction
system.cpu.op_class::SimdAddAcc                     0                       # Class of executed instruction
system.cpu.op_class::SimdAlu                        0                       # Class of executed instruction
system.cpu.op_class::SimdCmp                        0                       # Class of executed instruction
system.cpu.op_class::SimdCvt                        0                       # Class of executed instruction
system.cpu.op_class::SimdMisc                       0                       # Class of executed instruction
system.cpu.op_class::SimdMult                       0                       # Class of executed instruction
system.cpu.op_class::SimdMultAcc                    0                       # Class of executed instruction
system.cpu.op_class::SimdShift                      0                       # Class of executed instruction
system.cpu.op_class::SimdShiftAcc                   0                       # Class of executed instruction
system.cpu.op_class::SimdSqrt                       0                       # Class of executed instruction
system.cpu.op_class::SimdFloatAdd                   0                       # Class of executed instruction
system.cpu.op_class::SimdFloatAlu                   0                       # Class of executed instruction
system.cpu.op_class::SimdFloatCmp                   0                       # Class of executed instruction
system.cpu.op_class::SimdFloatCvt                   0                       # Class of executed instruction
system.cpu.op_class::SimdFloatDiv                   0                       # Class of executed instruction
system.cpu.op_class::SimdFloatMisc                  0                       # Class of executed instruction
system.cpu.op_class::SimdFloatMult                  0                       # Class of executed instruction
system.cpu.op_class::SimdFloatMultAcc               0                       # Class of executed instruction
system.cpu.op_class::SimdFloatSqrt                  0                       # Class of executed instruction
system.cpu.op_class::MemRead                        0                       # Class of executed instruction
system.cpu.op_class::MemWrite                       0                       # Class of executed instruction
system.cpu.op_class::IprAccess                      0                       # Class of executed instruction
system.cpu.op_class::InstPrefetch                   0                       # Class of executed instruction
system.cpu.op_class::total                          0                       # Class of executed instruction
system.cpu.kern.inst.arm                            0                       # number of arm instructions executed
system.cpu.kern.inst.quiesce                        0                       # number of quiesce instructions executed
system.cpu.kern.inst.hwrei                       2786                       # number of hwrei instructions executed
system.cpu.kern.ipl_count::0                      635     49.11%     49.11% # number of times we switched to this ipl
system.cpu.kern.ipl_count::22                       1      0.08%     49.19% # number of times we switched to this ipl
system.cpu.kern.ipl_count::31                     657     50.81%    100.00% # number of times we switched to this ipl
system.cpu.kern.ipl_count::total                 1293                       # number of times we switched to this ipl
system.cpu.kern.ipl_good::0                       633     49.96%     49.96% # number of times we switched to this ipl from a different ipl
system.cpu.kern.ipl_good::22                        1      0.08%     50.04% # number of times we switched to this ipl from a different ipl
system.cpu.kern.ipl_good::31                      633     49.96%    100.00% # number of times we switched to this ipl from a different ipl
system.cpu.kern.ipl_good::total                  1267                       # number of times we switched to this ipl from a different ipl
system.cpu.kern.ipl_ticks::0               1111547000     91.11%     91.11% # number of cycles we spent at this ipl
system.cpu.kern.ipl_ticks::22                 1369000      0.11%     91.22% # number of cycles we spent at this ipl
system.cpu.kern.ipl_ticks::31               107089500      8.78%    100.00% # number of cycles we spent at this ipl
system.cpu.kern.ipl_ticks::total           1220005500                       # number of cycles we spent at this ipl
system.cpu.kern.ipl_used::0                  0.996850                       # fraction of swpipl calls that actually changed the ipl
system.cpu.kern.ipl_used::22                        1                       # fraction of swpipl calls that actually changed the ipl
system.cpu.kern.ipl_used::31                 0.963470                       # fraction of swpipl calls that actually changed the ipl
system.cpu.kern.ipl_used::total              0.979892                       # fraction of swpipl calls that actually changed the ipl
system.cpu.kern.syscall::2                          1      5.56%      5.56% # number of syscalls executed
system.cpu.kern.syscall::3                          2     11.11%     16.67% # number of syscalls executed
system.cpu.kern.syscall::6                          2     11.11%     27.78% # number of syscalls executed
system.cpu.kern.syscall::17                         1      5.56%     33.33% # number of syscalls executed
system.cpu.kern.syscall::19                         1      5.56%     38.89% # number of syscalls executed
system.cpu.kern.syscall::33                         1      5.56%     44.44% # number of syscalls executed
system.cpu.kern.syscall::45                         3     16.67%     61.11% # number of syscalls executed
system.cpu.kern.syscall::48                         1      5.56%     66.67% # number of syscalls executed
system.cpu.kern.syscall::59                         1      5.56%     72.22% # number of syscalls executed
system.cpu.kern.syscall::71                         4     22.22%     94.44% # number of syscalls executed
system.cpu.kern.syscall::74                         1      5.56%    100.00% # number of syscalls executed
system.cpu.kern.syscall::total                     18                       # number of syscalls executed
system.cpu.kern.callpal::swpctx                   118      8.09%      8.09% # number of callpals executed
system.cpu.kern.callpal::tbi                        6      0.41%      8.50% # number of callpals executed
system.cpu.kern.callpal::swpipl                  1108     75.99%     84.50% # number of callpals executed
system.cpu.kern.callpal::rdps                       3      0.21%     84.71% # number of callpals executed
system.cpu.kern.callpal::wrusp                      1      0.07%     84.77% # number of callpals executed
system.cpu.kern.callpal::rdusp                      1      0.07%     84.84% # number of callpals executed
system.cpu.kern.callpal::rti                      184     12.62%     97.46% # number of callpals executed
system.cpu.kern.callpal::callsys                   33      2.26%     99.73% # number of callpals executed
system.cpu.kern.callpal::imb                        4      0.27%    100.00% # number of callpals executed
system.cpu.kern.callpal::total                   1458                       # number of callpals executed
system.cpu.kern.mode_switch::kernel               302                       # number of protection mode switches
system.cpu.kern.mode_switch::user                 182                       # number of protection mode switches
system.cpu.kern.mode_switch::idle                   0                       # number of protection mode switches
system.cpu.kern.mode_good::kernel                 182                      
system.cpu.kern.mode_good::user                   182                      
system.cpu.kern.mode_good::idle                     0                      
system.cpu.kern.mode_switch_good::kernel     0.602649                       # fraction of useful protection mode switches
system.cpu.kern.mode_switch_good::user              1                       # fraction of useful protection mode switches
system.cpu.kern.mode_switch_good::idle            nan                       # fraction of useful protection mode switches
system.cpu.kern.mode_switch_good::total      0.752066                       # fraction of useful protection mode switches
system.cpu.kern.mode_ticks::kernel          882604500     72.34%     72.34% # number of ticks spent at the given mode
system.cpu.kern.mode_ticks::user            337394000     27.66%    100.00% # number of ticks spent at the given mode
system.cpu.kern.mode_ticks::idle                    0      0.00%    100.00% # number of ticks spent at the given mode
system.cpu.kern.swap_context                      118                       # number of times the context was actually changed
system.cpu.dcache.tags.replacements             18336                       # number of replacements
system.cpu.dcache.tags.tagsinuse                  512                       # Cycle average of tags in use
system.cpu.dcache.tags.total_refs              199842                       # Total number of references to valid blocks.
system.cpu.dcache.tags.sampled_refs             18336                       # Sample count of references to valid blocks.
system.cpu.dcache.tags.avg_refs             10.898887                       # Average number of references to valid blocks.
system.cpu.dcache.tags.warmup_cycle                 0                       # Cycle when the warmup percentage was hit.
system.cpu.dcache.tags.occ_blocks::cpu.data    23.939895                       # Average occupied blocks per requestor
system.cpu.dcache.tags.occ_blocks::switch_cpus.data   488.060105                       # Average occupied blocks per requestor
system.cpu.dcache.tags.occ_percent::cpu.data     0.046758                       # Average percentage of cache occupancy
system.cpu.dcache.tags.occ_percent::switch_cpus.data     0.953242                       # Average percentage of cache occupancy
system.cpu.dcache.tags.occ_percent::total            1                       # Average percentage of cache occupancy
system.cpu.dcache.tags.occ_task_id_blocks::1024          512                       # Occupied blocks per task id
system.cpu.dcache.tags.age_task_id_blocks_1024::0          103                       # Occupied blocks per task id
system.cpu.dcache.tags.age_task_id_blocks_1024::1          351                       # Occupied blocks per task id
system.cpu.dcache.tags.age_task_id_blocks_1024::2           58                       # Occupied blocks per task id
system.cpu.dcache.tags.occ_task_id_percent::1024            1                       # Percentage of cache occupancy per task id
system.cpu.dcache.tags.tag_accesses           1189776                       # Number of tag accesses
system.cpu.dcache.tags.data_accesses          1189776                       # Number of data accesses
system.cpu.dcache.ReadReq_hits::switch_cpus.data       133723                       # number of ReadReq hits
system.cpu.dcache.ReadReq_hits::total          133723                       # number of ReadReq hits
system.cpu.dcache.WriteReq_hits::switch_cpus.data        58810                       # number of WriteReq hits
system.cpu.dcache.WriteReq_hits::total          58810                       # number of WriteReq hits
system.cpu.dcache.LoadLockedReq_hits::switch_cpus.data         2215                       # number of LoadLockedReq hits
system.cpu.dcache.LoadLockedReq_hits::total         2215                       # number of LoadLockedReq hits
system.cpu.dcache.StoreCondReq_hits::switch_cpus.data         2376                       # number of StoreCondReq hits
system.cpu.dcache.StoreCondReq_hits::total         2376                       # number of StoreCondReq hits
system.cpu.dcache.demand_hits::switch_cpus.data       192533                       # number of demand (read+write) hits
system.cpu.dcache.demand_hits::total           192533                       # number of demand (read+write) hits
system.cpu.dcache.overall_hits::switch_cpus.data       192533                       # number of overall hits
system.cpu.dcache.overall_hits::total          192533                       # number of overall hits
system.cpu.dcache.ReadReq_misses::switch_cpus.data        27873                       # number of ReadReq misses
system.cpu.dcache.ReadReq_misses::total         27873                       # number of ReadReq misses
system.cpu.dcache.WriteReq_misses::switch_cpus.data        67461                       # number of WriteReq misses
system.cpu.dcache.WriteReq_misses::total        67461                       # number of WriteReq misses
system.cpu.dcache.LoadLockedReq_misses::switch_cpus.data          400                       # number of LoadLockedReq misses
system.cpu.dcache.LoadLockedReq_misses::total          400                       # number of LoadLockedReq misses
system.cpu.dcache.StoreCondReq_misses::switch_cpus.data            2                       # number of StoreCondReq misses
system.cpu.dcache.StoreCondReq_misses::total            2                       # number of StoreCondReq misses
system.cpu.dcache.demand_misses::switch_cpus.data        95334                       # number of demand (read+write) misses
system.cpu.dcache.demand_misses::total          95334                       # number of demand (read+write) misses
system.cpu.dcache.overall_misses::switch_cpus.data        95334                       # number of overall misses
system.cpu.dcache.overall_misses::total         95334                       # number of overall misses
system.cpu.dcache.ReadReq_miss_latency::switch_cpus.data   1715256001                       # number of ReadReq miss cycles
system.cpu.dcache.ReadReq_miss_latency::total   1715256001                       # number of ReadReq miss cycles
system.cpu.dcache.WriteReq_miss_latency::switch_cpus.data   5076153366                       # number of WriteReq miss cycles
system.cpu.dcache.WriteReq_miss_latency::total   5076153366                       # number of WriteReq miss cycles
system.cpu.dcache.LoadLockedReq_miss_latency::switch_cpus.data     29456500                       # number of LoadLockedReq miss cycles
system.cpu.dcache.LoadLockedReq_miss_latency::total     29456500                       # number of LoadLockedReq miss cycles
system.cpu.dcache.StoreCondReq_miss_latency::switch_cpus.data        46501                       # number of StoreCondReq miss cycles
system.cpu.dcache.StoreCondReq_miss_latency::total        46501                       # number of StoreCondReq miss cycles
system.cpu.dcache.demand_miss_latency::switch_cpus.data   6791409367                       # number of demand (read+write) miss cycles
system.cpu.dcache.demand_miss_latency::total   6791409367                       # number of demand (read+write) miss cycles
system.cpu.dcache.overall_miss_latency::switch_cpus.data   6791409367                       # number of overall miss cycles
system.cpu.dcache.overall_miss_latency::total   6791409367                       # number of overall miss cycles
system.cpu.dcache.ReadReq_accesses::switch_cpus.data       161596                       # number of ReadReq accesses(hits+misses)
system.cpu.dcache.ReadReq_accesses::total       161596                       # number of ReadReq accesses(hits+misses)
system.cpu.dcache.WriteReq_accesses::switch_cpus.data       126271                       # number of WriteReq accesses(hits+misses)
system.cpu.dcache.WriteReq_accesses::total       126271                       # number of WriteReq accesses(hits+misses)
system.cpu.dcache.LoadLockedReq_accesses::switch_cpus.data         2615                       # number of LoadLockedReq accesses(hits+misses)
system.cpu.dcache.LoadLockedReq_accesses::total         2615                       # number of LoadLockedReq accesses(hits+misses)
system.cpu.dcache.StoreCondReq_accesses::switch_cpus.data         2378                       # number of StoreCondReq accesses(hits+misses)
system.cpu.dcache.StoreCondReq_accesses::total         2378                       # number of StoreCondReq accesses(hits+misses)
system.cpu.dcache.demand_accesses::switch_cpus.data       287867                       # number of demand (read+write) accesses
system.cpu.dcache.demand_accesses::total       287867                       # number of demand (read+write) accesses
system.cpu.dcache.overall_accesses::switch_cpus.data       287867                       # number of overall (read+write) accesses
system.cpu.dcache.overall_accesses::total       287867                       # number of overall (read+write) accesses
system.cpu.dcache.ReadReq_miss_rate::switch_cpus.data     0.172486                       # miss rate for ReadReq accesses
system.cpu.dcache.ReadReq_miss_rate::total     0.172486                       # miss rate for ReadReq accesses
system.cpu.dcache.WriteReq_miss_rate::switch_cpus.data     0.534256                       # miss rate for WriteReq accesses
system.cpu.dcache.WriteReq_miss_rate::total     0.534256                       # miss rate for WriteReq accesses
system.cpu.dcache.LoadLockedReq_miss_rate::switch_cpus.data     0.152964                       # miss rate for LoadLockedReq accesses
system.cpu.dcache.LoadLockedReq_miss_rate::total     0.152964                       # miss rate for LoadLockedReq accesses
system.cpu.dcache.StoreCondReq_miss_rate::switch_cpus.data     0.000841                       # miss rate for StoreCondReq accesses
system.cpu.dcache.StoreCondReq_miss_rate::total     0.000841                       # miss rate for StoreCondReq accesses
system.cpu.dcache.demand_miss_rate::switch_cpus.data     0.331174                       # miss rate for demand accesses
system.cpu.dcache.demand_miss_rate::total     0.331174                       # miss rate for demand accesses
system.cpu.dcache.overall_miss_rate::switch_cpus.data     0.331174                       # miss rate for overall accesses
system.cpu.dcache.overall_miss_rate::total     0.331174                       # miss rate for overall accesses
system.cpu.dcache.ReadReq_avg_miss_latency::switch_cpus.data 61538.262871                       # average ReadReq miss latency
system.cpu.dcache.ReadReq_avg_miss_latency::total 61538.262871                       # average ReadReq miss latency
system.cpu.dcache.WriteReq_avg_miss_latency::switch_cpus.data 75245.747410                       # average WriteReq miss latency
system.cpu.dcache.WriteReq_avg_miss_latency::total 75245.747410                       # average WriteReq miss latency
system.cpu.dcache.LoadLockedReq_avg_miss_latency::switch_cpus.data 73641.250000                       # average LoadLockedReq miss latency
system.cpu.dcache.LoadLockedReq_avg_miss_latency::total 73641.250000                       # average LoadLockedReq miss latency
system.cpu.dcache.StoreCondReq_avg_miss_latency::switch_cpus.data 23250.500000                       # average StoreCondReq miss latency
system.cpu.dcache.StoreCondReq_avg_miss_latency::total 23250.500000                       # average StoreCondReq miss latency
system.cpu.dcache.demand_avg_miss_latency::switch_cpus.data 71238.061625                       # average overall miss latency
system.cpu.dcache.demand_avg_miss_latency::total 71238.061625                       # average overall miss latency
system.cpu.dcache.overall_avg_miss_latency::switch_cpus.data 71238.061625                       # average overall miss latency
system.cpu.dcache.overall_avg_miss_latency::total 71238.061625                       # average overall miss latency
system.cpu.dcache.blocked_cycles::no_mshrs       393991                       # number of cycles access was blocked
system.cpu.dcache.blocked_cycles::no_targets          132                       # number of cycles access was blocked
system.cpu.dcache.blocked::no_mshrs              7610                       # number of cycles access was blocked
system.cpu.dcache.blocked::no_targets               2                       # number of cycles access was blocked
system.cpu.dcache.avg_blocked_cycles::no_mshrs    51.772799                       # average number of cycles each access was blocked
system.cpu.dcache.avg_blocked_cycles::no_targets           66                       # average number of cycles each access was blocked
system.cpu.dcache.fast_writes                       0                       # number of fast writes performed
system.cpu.dcache.cache_copies                      0                       # number of cache copies performed
system.cpu.dcache.writebacks::writebacks        11022                       # number of writebacks
system.cpu.dcache.writebacks::total             11022                       # number of writebacks
system.cpu.dcache.ReadReq_mshr_hits::switch_cpus.data        18866                       # number of ReadReq MSHR hits
system.cpu.dcache.ReadReq_mshr_hits::total        18866                       # number of ReadReq MSHR hits
system.cpu.dcache.WriteReq_mshr_hits::switch_cpus.data        58345                       # number of WriteReq MSHR hits
system.cpu.dcache.WriteReq_mshr_hits::total        58345                       # number of WriteReq MSHR hits
system.cpu.dcache.LoadLockedReq_mshr_hits::switch_cpus.data          174                       # number of LoadLockedReq MSHR hits
system.cpu.dcache.LoadLockedReq_mshr_hits::total          174                       # number of LoadLockedReq MSHR hits
system.cpu.dcache.demand_mshr_hits::switch_cpus.data        77211                       # number of demand (read+write) MSHR hits
system.cpu.dcache.demand_mshr_hits::total        77211                       # number of demand (read+write) MSHR hits
system.cpu.dcache.overall_mshr_hits::switch_cpus.data        77211                       # number of overall MSHR hits
system.cpu.dcache.overall_mshr_hits::total        77211                       # number of overall MSHR hits
system.cpu.dcache.ReadReq_mshr_misses::switch_cpus.data         9007                       # number of ReadReq MSHR misses
system.cpu.dcache.ReadReq_mshr_misses::total         9007                       # number of ReadReq MSHR misses
system.cpu.dcache.WriteReq_mshr_misses::switch_cpus.data         9116                       # number of WriteReq MSHR misses
system.cpu.dcache.WriteReq_mshr_misses::total         9116                       # number of WriteReq MSHR misses
system.cpu.dcache.LoadLockedReq_mshr_misses::switch_cpus.data          226                       # number of LoadLockedReq MSHR misses
system.cpu.dcache.LoadLockedReq_mshr_misses::total          226                       # number of LoadLockedReq MSHR misses
system.cpu.dcache.StoreCondReq_mshr_misses::switch_cpus.data            2                       # number of StoreCondReq MSHR misses
system.cpu.dcache.StoreCondReq_mshr_misses::total            2                       # number of StoreCondReq MSHR misses
system.cpu.dcache.demand_mshr_misses::switch_cpus.data        18123                       # number of demand (read+write) MSHR misses
system.cpu.dcache.demand_mshr_misses::total        18123                       # number of demand (read+write) MSHR misses
system.cpu.dcache.overall_mshr_misses::switch_cpus.data        18123                       # number of overall MSHR misses
system.cpu.dcache.overall_mshr_misses::total        18123                       # number of overall MSHR misses
system.cpu.dcache.WriteReq_mshr_uncacheable::switch_cpus.data            1                       # number of WriteReq MSHR uncacheable
system.cpu.dcache.WriteReq_mshr_uncacheable::total            1                       # number of WriteReq MSHR uncacheable
system.cpu.dcache.overall_mshr_uncacheable_misses::switch_cpus.data            1                       # number of overall MSHR uncacheable misses
system.cpu.dcache.overall_mshr_uncacheable_misses::total            1                       # number of overall MSHR uncacheable misses
system.cpu.dcache.ReadReq_mshr_miss_latency::switch_cpus.data    651189250                       # number of ReadReq MSHR miss cycles
system.cpu.dcache.ReadReq_mshr_miss_latency::total    651189250                       # number of ReadReq MSHR miss cycles
system.cpu.dcache.WriteReq_mshr_miss_latency::switch_cpus.data    784358317                       # number of WriteReq MSHR miss cycles
system.cpu.dcache.WriteReq_mshr_miss_latency::total    784358317                       # number of WriteReq MSHR miss cycles
system.cpu.dcache.LoadLockedReq_mshr_miss_latency::switch_cpus.data     16389000                       # number of LoadLockedReq MSHR miss cycles
system.cpu.dcache.LoadLockedReq_mshr_miss_latency::total     16389000                       # number of LoadLockedReq MSHR miss cycles
system.cpu.dcache.StoreCondReq_mshr_miss_latency::switch_cpus.data        43499                       # number of StoreCondReq MSHR miss cycles
system.cpu.dcache.StoreCondReq_mshr_miss_latency::total        43499                       # number of StoreCondReq MSHR miss cycles
system.cpu.dcache.demand_mshr_miss_latency::switch_cpus.data   1435547567                       # number of demand (read+write) MSHR miss cycles
system.cpu.dcache.demand_mshr_miss_latency::total   1435547567                       # number of demand (read+write) MSHR miss cycles
system.cpu.dcache.overall_mshr_miss_latency::switch_cpus.data   1435547567                       # number of overall MSHR miss cycles
system.cpu.dcache.overall_mshr_miss_latency::total   1435547567                       # number of overall MSHR miss cycles
system.cpu.dcache.WriteReq_mshr_uncacheable_latency::switch_cpus.data       223500                       # number of WriteReq MSHR uncacheable cycles
system.cpu.dcache.WriteReq_mshr_uncacheable_latency::total       223500                       # number of WriteReq MSHR uncacheable cycles
system.cpu.dcache.overall_mshr_uncacheable_latency::switch_cpus.data       223500                       # number of overall MSHR uncacheable cycles
system.cpu.dcache.overall_mshr_uncacheable_latency::total       223500                       # number of overall MSHR uncacheable cycles
system.cpu.dcache.ReadReq_mshr_miss_rate::switch_cpus.data     0.055738                       # mshr miss rate for ReadReq accesses
system.cpu.dcache.ReadReq_mshr_miss_rate::total     0.055738                       # mshr miss rate for ReadReq accesses
system.cpu.dcache.WriteReq_mshr_miss_rate::switch_cpus.data     0.072194                       # mshr miss rate for WriteReq accesses
system.cpu.dcache.WriteReq_mshr_miss_rate::total     0.072194                       # mshr miss rate for WriteReq accesses
system.cpu.dcache.LoadLockedReq_mshr_miss_rate::switch_cpus.data     0.086424                       # mshr miss rate for LoadLockedReq accesses
system.cpu.dcache.LoadLockedReq_mshr_miss_rate::total     0.086424                       # mshr miss rate for LoadLockedReq accesses
system.cpu.dcache.StoreCondReq_mshr_miss_rate::switch_cpus.data     0.000841                       # mshr miss rate for StoreCondReq accesses
system.cpu.dcache.StoreCondReq_mshr_miss_rate::total     0.000841                       # mshr miss rate for StoreCondReq accesses
system.cpu.dcache.demand_mshr_miss_rate::switch_cpus.data     0.062956                       # mshr miss rate for demand accesses
system.cpu.dcache.demand_mshr_miss_rate::total     0.062956                       # mshr miss rate for demand accesses
system.cpu.dcache.overall_mshr_miss_rate::switch_cpus.data     0.062956                       # mshr miss rate for overall accesses
system.cpu.dcache.overall_mshr_miss_rate::total     0.062956                       # mshr miss rate for overall accesses
system.cpu.dcache.ReadReq_avg_mshr_miss_latency::switch_cpus.data 72298.129233                       # average ReadReq mshr miss latency
system.cpu.dcache.ReadReq_avg_mshr_miss_latency::total 72298.129233                       # average ReadReq mshr miss latency
system.cpu.dcache.WriteReq_avg_mshr_miss_latency::switch_cpus.data 86041.939118                       # average WriteReq mshr miss latency
system.cpu.dcache.WriteReq_avg_mshr_miss_latency::total 86041.939118                       # average WriteReq mshr miss latency
system.cpu.dcache.LoadLockedReq_avg_mshr_miss_latency::switch_cpus.data 72517.699115                       # average LoadLockedReq mshr miss latency
system.cpu.dcache.LoadLockedReq_avg_mshr_miss_latency::total 72517.699115                       # average LoadLockedReq mshr miss latency
system.cpu.dcache.StoreCondReq_avg_mshr_miss_latency::switch_cpus.data 21749.500000                       # average StoreCondReq mshr miss latency
system.cpu.dcache.StoreCondReq_avg_mshr_miss_latency::total 21749.500000                       # average StoreCondReq mshr miss latency
system.cpu.dcache.demand_avg_mshr_miss_latency::switch_cpus.data 79211.364951                       # average overall mshr miss latency
system.cpu.dcache.demand_avg_mshr_miss_latency::total 79211.364951                       # average overall mshr miss latency
system.cpu.dcache.overall_avg_mshr_miss_latency::switch_cpus.data 79211.364951                       # average overall mshr miss latency
system.cpu.dcache.overall_avg_mshr_miss_latency::total 79211.364951                       # average overall mshr miss latency
system.cpu.dcache.WriteReq_avg_mshr_uncacheable_latency::switch_cpus.data       223500                       # average WriteReq mshr uncacheable latency
system.cpu.dcache.WriteReq_avg_mshr_uncacheable_latency::total       223500                       # average WriteReq mshr uncacheable latency
system.cpu.dcache.overall_avg_mshr_uncacheable_latency::switch_cpus.data       223500                       # average overall mshr uncacheable latency
system.cpu.dcache.overall_avg_mshr_uncacheable_latency::total       223500                       # average overall mshr uncacheable latency
system.cpu.dcache.no_allocate_misses                0                       # Number of misses that were no-allocate
system.cpu.icache.tags.replacements             10450                       # number of replacements
system.cpu.icache.tags.tagsinuse           511.721311                       # Cycle average of tags in use
system.cpu.icache.tags.total_refs              362920                       # Total number of references to valid blocks.
system.cpu.icache.tags.sampled_refs             10450                       # Sample count of references to valid blocks.
system.cpu.icache.tags.avg_refs             34.729187                       # Average number of references to valid blocks.
system.cpu.icache.tags.warmup_cycle                 0                       # Cycle when the warmup percentage was hit.
system.cpu.icache.tags.occ_blocks::cpu.inst    21.360800                       # Average occupied blocks per requestor
system.cpu.icache.tags.occ_blocks::switch_cpus.inst   490.360511                       # Average occupied blocks per requestor
system.cpu.icache.tags.occ_percent::cpu.inst     0.041720                       # Average percentage of cache occupancy
system.cpu.icache.tags.occ_percent::switch_cpus.inst     0.957735                       # Average percentage of cache occupancy
system.cpu.icache.tags.occ_percent::total     0.999456                       # Average percentage of cache occupancy
system.cpu.icache.tags.occ_task_id_blocks::1024          511                       # Occupied blocks per task id
system.cpu.icache.tags.age_task_id_blocks_1024::0           65                       # Occupied blocks per task id
system.cpu.icache.tags.age_task_id_blocks_1024::1           18                       # Occupied blocks per task id
system.cpu.icache.tags.age_task_id_blocks_1024::2          427                       # Occupied blocks per task id
system.cpu.icache.tags.age_task_id_blocks_1024::3            1                       # Occupied blocks per task id
system.cpu.icache.tags.occ_task_id_percent::1024     0.998047                       # Percentage of cache occupancy per task id
system.cpu.icache.tags.tag_accesses            341970                       # Number of tag accesses
system.cpu.icache.tags.data_accesses           341970                       # Number of data accesses
system.cpu.icache.ReadReq_hits::switch_cpus.inst       153265                       # number of ReadReq hits
system.cpu.icache.ReadReq_hits::total          153265                       # number of ReadReq hits
system.cpu.icache.demand_hits::switch_cpus.inst       153265                       # number of demand (read+write) hits
system.cpu.icache.demand_hits::total           153265                       # number of demand (read+write) hits
system.cpu.icache.overall_hits::switch_cpus.inst       153265                       # number of overall hits
system.cpu.icache.overall_hits::total          153265                       # number of overall hits
system.cpu.icache.ReadReq_misses::switch_cpus.inst        12488                       # number of ReadReq misses
system.cpu.icache.ReadReq_misses::total         12488                       # number of ReadReq misses
system.cpu.icache.demand_misses::switch_cpus.inst        12488                       # number of demand (read+write) misses
system.cpu.icache.demand_misses::total          12488                       # number of demand (read+write) misses
system.cpu.icache.overall_misses::switch_cpus.inst        12488                       # number of overall misses
system.cpu.icache.overall_misses::total         12488                       # number of overall misses
system.cpu.icache.ReadReq_miss_latency::switch_cpus.inst    772998246                       # number of ReadReq miss cycles
system.cpu.icache.ReadReq_miss_latency::total    772998246                       # number of ReadReq miss cycles
system.cpu.icache.demand_miss_latency::switch_cpus.inst    772998246                       # number of demand (read+write) miss cycles
system.cpu.icache.demand_miss_latency::total    772998246                       # number of demand (read+write) miss cycles
system.cpu.icache.overall_miss_latency::switch_cpus.inst    772998246                       # number of overall miss cycles
system.cpu.icache.overall_miss_latency::total    772998246                       # number of overall miss cycles
system.cpu.icache.ReadReq_accesses::switch_cpus.inst       165753                       # number of ReadReq accesses(hits+misses)
system.cpu.icache.ReadReq_accesses::total       165753                       # number of ReadReq accesses(hits+misses)
system.cpu.icache.demand_accesses::switch_cpus.inst       165753                       # number of demand (read+write) accesses
system.cpu.icache.demand_accesses::total       165753                       # number of demand (read+write) accesses
system.cpu.icache.overall_accesses::switch_cpus.inst       165753                       # number of overall (read+write) accesses
system.cpu.icache.overall_accesses::total       165753                       # number of overall (read+write) accesses
system.cpu.icache.ReadReq_miss_rate::switch_cpus.inst     0.075341                       # miss rate for ReadReq accesses
system.cpu.icache.ReadReq_miss_rate::total     0.075341                       # miss rate for ReadReq accesses
system.cpu.icache.demand_miss_rate::switch_cpus.inst     0.075341                       # miss rate for demand accesses
system.cpu.icache.demand_miss_rate::total     0.075341                       # miss rate for demand accesses
system.cpu.icache.overall_miss_rate::switch_cpus.inst     0.075341                       # miss rate for overall accesses
system.cpu.icache.overall_miss_rate::total     0.075341                       # miss rate for overall accesses
system.cpu.icache.ReadReq_avg_miss_latency::switch_cpus.inst 61899.282992                       # average ReadReq miss latency
system.cpu.icache.ReadReq_avg_miss_latency::total 61899.282992                       # average ReadReq miss latency
system.cpu.icache.demand_avg_miss_latency::switch_cpus.inst 61899.282992                       # average overall miss latency
system.cpu.icache.demand_avg_miss_latency::total 61899.282992                       # average overall miss latency
system.cpu.icache.overall_avg_miss_latency::switch_cpus.inst 61899.282992                       # average overall miss latency
system.cpu.icache.overall_avg_miss_latency::total 61899.282992                       # average overall miss latency
system.cpu.icache.blocked_cycles::no_mshrs         1990                       # number of cycles access was blocked
system.cpu.icache.blocked_cycles::no_targets            0                       # number of cycles access was blocked
system.cpu.icache.blocked::no_mshrs                32                       # number of cycles access was blocked
system.cpu.icache.blocked::no_targets               0                       # number of cycles access was blocked
system.cpu.icache.avg_blocked_cycles::no_mshrs    62.187500                       # average number of cycles each access was blocked
system.cpu.icache.avg_blocked_cycles::no_targets          nan                       # average number of cycles each access was blocked
system.cpu.icache.fast_writes                       0                       # number of fast writes performed
system.cpu.icache.cache_copies                      0                       # number of cache copies performed
system.cpu.icache.ReadReq_mshr_hits::switch_cpus.inst         2024                       # number of ReadReq MSHR hits
system.cpu.icache.ReadReq_mshr_hits::total         2024                       # number of ReadReq MSHR hits
system.cpu.icache.demand_mshr_hits::switch_cpus.inst         2024                       # number of demand (read+write) MSHR hits
system.cpu.icache.demand_mshr_hits::total         2024                       # number of demand (read+write) MSHR hits
system.cpu.icache.overall_mshr_hits::switch_cpus.inst         2024                       # number of overall MSHR hits
system.cpu.icache.overall_mshr_hits::total         2024                       # number of overall MSHR hits
system.cpu.icache.ReadReq_mshr_misses::switch_cpus.inst        10464                       # number of ReadReq MSHR misses
[...]
system.switch_cpus.iew.wb_producers           2811170                       # num instructions producing a value
system.switch_cpus.iew.wb_consumers           3636005                       # num instructions consuming a value
system.switch_cpus.iew.wb_penalized                 0                       # number of instrctions required to write to 'other' IQ
system.switch_cpus.iew.wb_rate               0.611219                       # insts written-back per cycle
system.switch_cpus.iew.wb_fanout             0.773148                       # average fanout of values written-back
system.switch_cpus.iew.wb_penalized_rate            0                       # fraction of instructions written-back that wrote to 'other' IQ
system.switch_cpus.commit.commitSquashedInsts      1054381                       # The number of squashed insts skipped by commit
system.switch_cpus.commit.commitNonSpecStalls        73373                       # The number of times commit has been forced to stall to communicate backwards
system.switch_cpus.commit.branchMispredicts        45260                       # The number of times a branch was mispredicted
system.switch_cpus.commit.committed_per_cycle::samples      6569602                       # Number of insts commited each cycle
system.switch_cpus.commit.committed_per_cycle::mean     0.675677                       # Number of insts commited each cycle
system.switch_cpus.commit.committed_per_cycle::stdev     1.747039                       # Number of insts commited each cycle
system.switch_cpus.commit.committed_per_cycle::underflows            0      0.00%      0.00% # Number of insts commited each cycle
system.switch_cpus.commit.committed_per_cycle::0      5066189     77.12%     77.12% # Number of insts commited each cycle
system.switch_cpus.commit.committed_per_cycle::1       698516     10.63%     87.75% # Number of insts commited each cycle
system.switch_cpus.commit.committed_per_cycle::2       256880      3.91%     91.66% # Number of insts commited each cycle
system.switch_cpus.commit.committed_per_cycle::3       105014      1.60%     93.26% # Number of insts commited each cycle
system.switch_cpus.commit.committed_per_cycle::4        96576      1.47%     94.73% # Number of insts commited each cycle
system.switch_cpus.commit.committed_per_cycle::5        46745      0.71%     95.44% # Number of insts commited each cycle
system.switch_cpus.commit.committed_per_cycle::6        37040      0.56%     96.00% # Number of insts commited each cycle
system.switch_cpus.commit.committed_per_cycle::7        31791      0.48%     96.49% # Number of insts commited each cycle
system.switch_cpus.commit.committed_per_cycle::8       230851      3.51%    100.00% # Number of insts commited each cycle
system.switch_cpus.commit.committed_per_cycle::overflows            0      0.00%    100.00% # Number of insts commited each cycle
system.switch_cpus.commit.committed_per_cycle::min_value            0                       # Number of insts commited each cycle
system.switch_cpus.commit.committed_per_cycle::max_value            8                       # Number of insts commited each cycle
system.switch_cpus.commit.committed_per_cycle::total      6569602                       # Number of insts commited each cycle
system.switch_cpus.commit.committedInsts      4438932                       # Number of instructions committed
system.switch_cpus.commit.committedOps        4438932                       # Number of ops (including micro ops) committed
system.switch_cpus.commit.swp_count                 0                       # Number of s/w prefetches committed
system.switch_cpus.commit.refs                1220632                       # Number of memory references committed
system.switch_cpus.commit.loads                769406                       # Number of loads committed
system.switch_cpus.commit.membars               33648                       # Number of memory barriers committed
system.switch_cpus.commit.branches             607539                       # Number of branches committed
system.switch_cpus.commit.fp_insts              15570                       # Number of committed floating point instructions.
system.switch_cpus.commit.int_insts           4281597                       # Number of committed integer instructions.
system.switch_cpus.commit.function_calls        69314                       # Number of function calls committed.
system.switch_cpus.commit.op_class_0::No_OpClass        45388      1.02%      1.02% # Class of committed instruction
system.switch_cpus.commit.op_class_0::IntAlu      3021925     68.08%     69.10% # Class of committed instruction
system.switch_cpus.commit.op_class_0::IntMult        11835      0.27%     69.37% # Class of committed instruction
system.switch_cpus.commit.op_class_0::IntDiv            0      0.00%     69.37% # Class of committed instruction
system.switch_cpus.commit.op_class_0::FloatAdd         5017      0.11%     69.48% # Class of committed instruction
system.switch_cpus.commit.op_class_0::FloatCmp            1      0.00%     69.48% # Class of committed instruction
system.switch_cpus.commit.op_class_0::FloatCvt         2231      0.05%     69.53% # Class of committed instruction
system.switch_cpus.commit.op_class_0::FloatMult            1      0.00%     69.53% # Class of committed instruction
system.switch_cpus.commit.op_class_0::FloatDiv          988      0.02%     69.55% # Class of committed instruction
system.switch_cpus.commit.op_class_0::FloatSqrt            0      0.00%     69.55% # Class of committed instruction
system.switch_cpus.commit.op_class_0::SimdAdd            0      0.00%     69.55% # Class of committed instruction
system.switch_cpus.commit.op_class_0::SimdAddAcc            0      0.00%     69.55% # Class of committed instruction
system.switch_cpus.commit.op_class_0::SimdAlu            0      0.00%     69.55% # Class of committed instruction
system.switch_cpus.commit.op_class_0::SimdCmp            0      0.00%     69.55% # Class of committed instruction
system.switch_cpus.commit.op_class_0::SimdCvt            0      0.00%     69.55% # Class of committed instruction
system.switch_cpus.commit.op_class_0::SimdMisc            0      0.00%     69.55% # Class of committed instruction
system.switch_cpus.commit.op_class_0::SimdMult            0      0.00%     69.55% # Class of committed instruction
system.switch_cpus.commit.op_class_0::SimdMultAcc            0      0.00%     69.55% # Class of committed instruction
system.switch_cpus.commit.op_class_0::SimdShift            0      0.00%     69.55% # Class of committed instruction
system.switch_cpus.commit.op_class_0::SimdShiftAcc            0      0.00%     69.55% # Class of committed instruction
system.switch_cpus.commit.op_class_0::SimdSqrt            0      0.00%     69.55% # Class of committed instruction
system.switch_cpus.commit.op_class_0::SimdFloatAdd            0      0.00%     69.55% # Class of committed instruction
system.switch_cpus.commit.op_class_0::SimdFloatAlu            0      0.00%     69.55% # Class of committed instruction
system.switch_cpus.commit.op_class_0::SimdFloatCmp            0      0.00%     69.55% # Class of committed instruction
system.switch_cpus.commit.op_class_0::SimdFloatCvt            0      0.00%     69.55% # Class of committed instruction
system.switch_cpus.commit.op_class_0::SimdFloatDiv            0      0.00%     69.55% # Class of committed instruction
system.switch_cpus.commit.op_class_0::SimdFloatMisc            0      0.00%     69.55% # Class of committed instruction
system.switch_cpus.commit.op_class_0::SimdFloatMult            0      0.00%     69.55% # Class of committed instruction
system.switch_cpus.commit.op_class_0::SimdFloatMultAcc            0      0.00%     69.55% # Class of committed instruction
system.switch_cpus.commit.op_class_0::SimdFloatSqrt            0      0.00%     69.55% # Class of committed instruction
system.switch_cpus.commit.op_class_0::MemRead       803054     18.09%     87.64% # Class of committed instruction
system.switch_cpus.commit.op_class_0::MemWrite       451598     10.17%     97.82% # Class of committed instruction
system.switch_cpus.commit.op_class_0::IprAccess        96894      2.18%    100.00% # Class of committed instruction
system.switch_cpus.commit.op_class_0::InstPrefetch            0      0.00%    100.00% # Class of committed instruction
system.switch_cpus.commit.op_class_0::total      4438932                       # Class of committed instruction
system.switch_cpus.commit.bw_lim_events        230851                       # number cycles where commit BW limit reached
system.switch_cpus.rob.rob_reads             11791998                       # The number of ROB reads
system.switch_cpus.rob.rob_writes            11157696                       # The number of ROB writes
system.switch_cpus.timesIdled                   13674                       # Number of times that the entire CPU went into an idle state and unscheduled itself
system.switch_cpus.idleCycles                 1285451                       # Total number of cycles that the CPU has spent unscheduled due to idling
system.switch_cpus.committedInsts             4395522                       # Number of Instructions Simulated
system.switch_cpus.committedOps               4395522                       # Number of Ops (including micro ops) Simulated
system.switch_cpus.cpi                       1.825845                       # CPI: Cycles Per Instruction
system.switch_cpus.cpi_total                 1.825845                       # CPI: Total CPI of All Threads
system.switch_cpus.ipc                       0.547692                       # IPC: Instructions Per Cycle
system.switch_cpus.ipc_total                 0.547692                       # IPC: Total IPC of All Threads
system.switch_cpus.int_regfile_reads          6577750                       # number of integer regfile reads
system.switch_cpus.int_regfile_writes         3728574                       # number of integer regfile writes
system.switch_cpus.fp_regfile_reads             10658                       # number of floating regfile reads
system.switch_cpus.fp_regfile_writes            10206                       # number of floating regfile writes
system.switch_cpus.misc_regfile_reads          166386                       # number of misc regfile reads
system.switch_cpus.misc_regfile_writes          92054                       # number of misc regfile writes
system.tol2bus.trans_dist::ReadReq              43410                       # Transaction distribution
system.tol2bus.trans_dist::ReadResp             43410                       # Transaction distribution
system.tol2bus.trans_dist::WriteReq               136                       # Transaction distribution
system.tol2bus.trans_dist::WriteResp              136                       # Transaction distribution
system.tol2bus.trans_dist::Writeback            24058                       # Transaction distribution
system.tol2bus.trans_dist::UpgradeReq              12                       # Transaction distribution
system.tol2bus.trans_dist::SCUpgradeReq             1                       # Transaction distribution
system.tol2bus.trans_dist::UpgradeResp             13                       # Transaction distribution
system.tol2bus.trans_dist::ReadExReq            14353                       # Transaction distribution
system.tol2bus.trans_dist::ReadExResp           14353                       # Transaction distribution
system.tol2bus.pkt_count_system.cpu.icache.mem_side::system.l2.cpu_side        37733                       # Packet count per connected master and slave (bytes)
system.tol2bus.pkt_count_system.cpu.dcache.mem_side::system.l2.cpu_side       102132                       # Packet count per connected master and slave (bytes)
system.tol2bus.pkt_count::total                139865                       # Packet count per connected master and slave (bytes)
system.tol2bus.pkt_size_system.cpu.icache.mem_side::system.l2.cpu_side      1206912                       # Cumulative packet size per connected master and slave (bytes)
system.tol2bus.pkt_size_system.cpu.dcache.mem_side::system.l2.cpu_side      4009920                       # Cumulative packet size per connected master and slave (bytes)
system.tol2bus.pkt_size::total                5216832                       # Cumulative packet size per connected master and slave (bytes)
system.tol2bus.snoops                              17                       # Total snoops (count)
system.tol2bus.snoop_fanout::samples            81970                       # Request fanout histogram
system.tol2bus.snoop_fanout::mean                   1                       # Request fanout histogram
system.tol2bus.snoop_fanout::stdev                  0                       # Request fanout histogram
system.tol2bus.snoop_fanout::underflows             0      0.00%      0.00% # Request fanout histogram
system.tol2bus.snoop_fanout::0                      0      0.00%      0.00% # Request fanout histogram
system.tol2bus.snoop_fanout::1                  81970    100.00%    100.00% # Request fanout histogram
system.tol2bus.snoop_fanout::2                      0      0.00%    100.00% # Request fanout histogram
system.tol2bus.snoop_fanout::overflows              0      0.00%    100.00% # Request fanout histogram
system.tol2bus.snoop_fanout::min_value              1                       # Request fanout histogram
system.tol2bus.snoop_fanout::max_value              1                       # Request fanout histogram
system.tol2bus.snoop_fanout::total              81970                       # Request fanout histogram
system.tol2bus.reqLayer0.occupancy           65111000                       # Layer occupancy (ticks)
system.tol2bus.reqLayer0.utilization              1.6                       # Layer utilization (%)
system.tol2bus.respLayer0.occupancy          30789244                       # Layer occupancy (ticks)
system.tol2bus.respLayer0.utilization             0.8                       # Layer utilization (%)
system.tol2bus.respLayer1.occupancy          63315505                       # Layer occupancy (ticks)
system.tol2bus.respLayer1.utilization             1.6                       # Layer utilization (%)
system.tsunami.ethernet.descDMAReads                0                       # Number of descriptors the device read w/ DMA
system.tsunami.ethernet.descDMAWrites               0                       # Number of descriptors the device wrote w/ DMA
system.tsunami.ethernet.descDmaReadBytes            0                       # number of descriptor bytes read w/ DMA
system.tsunami.ethernet.descDmaWriteBytes            0                       # number of descriptor bytes write w/ DMA
system.tsunami.ethernet.postedSwi                   0                       # number of software interrupts posted to CPU
system.tsunami.ethernet.coalescedSwi              nan                       # average number of Swi's coalesced into each post
system.tsunami.ethernet.totalSwi                    0                       # total number of Swi written to ISR
system.tsunami.ethernet.postedRxIdle                0                       # number of rxIdle interrupts posted to CPU
system.tsunami.ethernet.coalescedRxIdle           nan                       # average number of RxIdle's coalesced into each post
system.tsunami.ethernet.totalRxIdle                 0                       # total number of RxIdle written to ISR
system.tsunami.ethernet.postedRxOk                  0                       # number of RxOk interrupts posted to CPU
system.tsunami.ethernet.coalescedRxOk             nan                       # average number of RxOk's coalesced into each post
system.tsunami.ethernet.totalRxOk                   0                       # total number of RxOk written to ISR
system.tsunami.ethernet.postedRxDesc                0                       # number of RxDesc interrupts posted to CPU
system.tsunami.ethernet.coalescedRxDesc           nan                       # average number of RxDesc's coalesced into each post
system.tsunami.ethernet.totalRxDesc                 0                       # total number of RxDesc written to ISR
system.tsunami.ethernet.postedTxOk                  0                       # number of TxOk interrupts posted to CPU
system.tsunami.ethernet.coalescedTxOk             nan                       # average number of TxOk's coalesced into each post
system.tsunami.ethernet.totalTxOk                   0                       # total number of TxOk written to ISR
system.tsunami.ethernet.postedTxIdle                0                       # number of TxIdle interrupts posted to CPU
system.tsunami.ethernet.coalescedTxIdle           nan                       # average number of TxIdle's coalesced into each post
system.tsunami.ethernet.totalTxIdle                 0                       # total number of TxIdle written to ISR
system.tsunami.ethernet.postedTxDesc                0                       # number of TxDesc interrupts posted to CPU
system.tsunami.ethernet.coalescedTxDesc           nan                       # average number of TxDesc's coalesced into each post
system.tsunami.ethernet.totalTxDesc                 0                       # total number of TxDesc written to ISR
system.tsunami.ethernet.postedRxOrn                 0                       # number of RxOrn posted to CPU
system.tsunami.ethernet.coalescedRxOrn            nan                       # average number of RxOrn's coalesced into each post
system.tsunami.ethernet.totalRxOrn                  0                       # total number of RxOrn written to ISR
system.tsunami.ethernet.coalescedTotal            nan                       # average number of interrupts coalesced into each post
system.tsunami.ethernet.postedInterrupts            0                       # number of posts to CPU
system.tsunami.ethernet.droppedPackets              0                       # number of packets dropped
system.switch_cpus.kern.inst.arm                    0                       # number of arm instructions executed
system.switch_cpus.kern.inst.quiesce                0                       # number of quiesce instructions executed
system.switch_cpus.kern.inst.hwrei                  0                       # number of hwrei instructions executed
system.switch_cpus.kern.mode_switch::kernel            0                       # number of protection mode switches
system.switch_cpus.kern.mode_switch::user            0                       # number of protection mode switches
system.switch_cpus.kern.mode_switch::idle            0                       # number of protection mode switches
system.switch_cpus.kern.mode_good::kernel            0                      
system.switch_cpus.kern.mode_good::user             0                      
system.switch_cpus.kern.mode_good::idle             0                      
system.switch_cpus.kern.mode_switch_good::kernel          nan                       # fraction of useful protection mode switches
system.switch_cpus.kern.mode_switch_good::user          nan                       # fraction of useful protection mode switches
system.switch_cpus.kern.mode_switch_good::idle          nan                       # fraction of useful protection mode switches
system.switch_cpus.kern.mode_switch_good::total          nan                       # fraction of useful protection mode switches
system.switch_cpus.kern.mode_ticks::kernel            0                       # number of ticks spent at the given mode
system.switch_cpus.kern.mode_ticks::user            0                       # number of ticks spent at the given mode
system.switch_cpus.kern.mode_ticks::idle            0                       # number of ticks spent at the given mode
system.switch_cpus.kern.swap_context                0                       # number of times the context was actually changed

---------- End Simulation Statistics   ----------
